REMARK  Name = ligands_pdb/F3_CHEMBL422577.pdb
REMARK  3 active torsions:
REMARK  status: ('A' for Active; 'I' for Inactive)
REMARK    1  A    between atoms: C3_6  and  C4_7
REMARK    2  A    between atoms: C8_14  and  O1_15
REMARK    3  A    between atoms: O1_15  and  C9_16
REMARK                            x       y       z     vdW  Elec       q    Type
REMARK                         _______ _______ _______ _____ _____    ______ ____
ROOT
ATOM      1  C4  F11     1      -0.049  -0.463   0.049  0.00  0.00    -0.013 A 
ATOM      2  C5  F11     1       0.383  -1.799   0.245  0.00  0.00    +0.009 A 
ATOM      3  C6  F11     1       1.748  -2.121   0.305  0.00  0.00    +0.004 A 
ATOM      4  C7  F11     1       2.718  -1.116   0.169  0.00  0.00    +0.045 A 
ATOM      5  C8  F11     1       2.319   0.220  -0.028  0.00  0.00    +0.121 A 
ATOM      6  C10 F11     1       0.951   0.534  -0.085  0.00  0.00    +0.054 A 
ENDROOT
BRANCH   1  10
ATOM      7  C1  F11     1      -4.190   0.629  -0.095  0.00  0.00    +0.111 A 
ATOM      8  N1  F11     1      -3.280   1.543   0.292  0.00  0.00    -0.263 NA
ATOM      9  C2  F11     1      -1.982   1.179   0.328  0.00  0.00    +0.119 A 
ATOM     10  C3  F11     1      -1.508  -0.115  -0.013  0.00  0.00    +0.000 A 
ATOM     11  C11 F11     1      -2.488  -1.058  -0.415  0.00  0.00    +0.011 A 
ATOM     12  C12 F11     1      -3.840  -0.682  -0.457  0.00  0.00    +0.020 A 
ENDBRANCH   1  10
BRANCH   5  13
ATOM     13  O1  F11     1       3.222   1.253  -0.173  0.00  0.00    -0.495 OA
ATOM     14  C9  F11     1       4.648   1.067  -0.136  0.00  0.00    +0.277 C 
ENDBRANCH   5  13
TORSDOF 2
