REMARK  Name = ligands_pdb/F3_CHEMBL418010.pdb
REMARK  7 active torsions:
REMARK  status: ('A' for Active; 'I' for Inactive)
REMARK    1  A    between atoms: N2_5  and  C3_7
REMARK    2  A    between atoms: C5_10  and  N3_11
REMARK    3  A    between atoms: C6_13  and  C7_15
REMARK    4  A    between atoms: C12_24  and  O2_25
REMARK    5  A    between atoms: O2_25  and  C13_26
REMARK    6  A    between atoms: C16_34  and  C17_35
REMARK    7  A    between atoms: C18_40  and  C19_41
REMARK                            x       y       z     vdW  Elec       q    Type
REMARK                         _______ _______ _______ _____ _____    ______ ____
ROOT
ATOM      1  C3  F10     1      -0.549   1.830   0.133  0.00  0.00    +0.038 A 
ATOM      2  C4  F10     1       0.487   0.873   0.176  0.00  0.00    +0.047 A 
ATOM      3  C5  F10     1       1.835   1.264   0.208  0.00  0.00    +0.035 A 
ATOM      4  C14 F10     1       2.158   2.631   0.208  0.00  0.00    +0.024 A 
ATOM      5  C15 F10     1       1.139   3.593   0.147  0.00  0.00    +0.007 A 
ATOM      6  C16 F10     1      -0.212   3.203   0.100  0.00  0.00    -0.029 A 
ATOM      7  C17 F10     1      -1.293   4.277   0.032  0.00  0.00    +0.045 C 
ENDROOT
BRANCH   1  11
ATOM      8  C1  F10     1      -2.709  -1.615   1.715  0.00  0.00    +0.116 A 
ATOM      9  N1  F10     1      -1.980  -0.556   1.317  0.00  0.00    -0.223 NA
ATOM     10  C2  F10     1      -2.581   0.316   0.480  0.00  0.00    +0.220 A 
ATOM     11  N2  F10     1      -1.894   1.454   0.071  0.00  0.00    -0.283 N 
ATOM     12  H2  F10     1      -2.503   2.174  -0.293  0.00  0.00    +0.155 HD
ATOM     13  N4  F10     1      -3.851   0.228   0.037  0.00  0.00    -0.214 NA
ATOM     14  C18 F10     1      -4.602  -0.827   0.424  0.00  0.00    +0.077 A 
ATOM     15  C24 F10     1      -4.035  -1.797   1.290  0.00  0.00    +0.048 A 
BRANCH  14  16
ATOM     16  C19 F10     1      -6.012  -0.903  -0.098  0.00  0.00    +0.019 A 
ATOM     17  C20 F10     1      -6.924  -1.904   0.330  0.00  0.00    +0.120 A 
ATOM     18  N5  F10     1      -8.195  -2.011  -0.110  0.00  0.00    -0.263 NA
ATOM     19  C21 F10     1      -8.637  -1.117  -1.014  0.00  0.00    +0.111 A 
ATOM     20  C22 F10     1      -7.830  -0.082  -1.511  0.00  0.00    +0.020 A 
ATOM     21  C23 F10     1      -6.509   0.027  -1.050  0.00  0.00    +0.013 A 
ENDBRANCH  14  16
ENDBRANCH   1  11
BRANCH   3  22
ATOM     22  N3  F10     1       2.841   0.265   0.267  0.00  0.00    -0.281 N 
ATOM     23  H4  F10     1       2.625  -0.535   0.847  0.00  0.00    +0.155 HD
ATOM     24  C6  F10     1       4.040   0.228  -0.432  0.00  0.00    +0.252 C 
ATOM     25  O1  F10     1       4.353   1.110  -1.215  0.00  0.00    -0.270 OA
BRANCH  24  26
ATOM     26  C7  F10     1       4.890  -1.001  -0.203  0.00  0.00    +0.079 A 
ATOM     27  C8  F10     1       4.269  -2.228   0.124  0.00  0.00    +0.017 A 
ATOM     28  C9  F10     1       5.029  -3.390   0.327  0.00  0.00    +0.001 A 
ATOM     29  C10 F10     1       6.424  -3.342   0.210  0.00  0.00    +0.004 A 
ATOM     30  C11 F10     1       7.058  -2.133  -0.110  0.00  0.00    +0.046 A 
ATOM     31  C12 F10     1       6.302  -0.959  -0.320  0.00  0.00    +0.132 A 
BRANCH  31  32
ATOM     32  O2  F10     1       6.927   0.242  -0.598  0.00  0.00    -0.494 OA
ATOM     33  C13 F10     1       8.317   0.366  -0.944  0.00  0.00    +0.277 C 
ENDBRANCH  31  32
ENDBRANCH  24  26
ENDBRANCH   3  22
TORSDOF 5
