REMARK  Name = ligands_pdb/F3_CHEMBL417498.pdb
REMARK  5 active torsions:
REMARK  status: ('A' for Active; 'I' for Inactive)
REMARK    1  A    between atoms: C3_6  and  C4_7
REMARK    2  A    between atoms: C7_12  and  O1_13
REMARK    3  A    between atoms: O1_13  and  C8_14
REMARK    4  A    between atoms: C9_18  and  O2_19
REMARK    5  A    between atoms: O2_19  and  C10_20
REMARK                            x       y       z     vdW  Elec       q    Type
REMARK                         _______ _______ _______ _____ _____    ______ ____
ROOT
ATOM      1  C4  F09     1      -0.558  -0.369   0.001  0.00  0.00    -0.013 A 
ATOM      2  C5  F09     1       0.106  -1.616   0.093  0.00  0.00    +0.012 A 
ATOM      3  C6  F09     1       1.506  -1.697   0.115  0.00  0.00    +0.050 A 
ATOM      4  C7  F09     1       2.290  -0.529   0.043  0.00  0.00    +0.162 A 
ATOM      5  C9  F09     1       1.654   0.728  -0.052  0.00  0.00    +0.162 A 
ATOM      6  C11 F09     1       0.245   0.797  -0.070  0.00  0.00    +0.058 A 
ENDROOT
BRANCH   1  10
ATOM      7  C1  F09     1      -4.828  -0.029  -0.016  0.00  0.00    +0.111 A 
ATOM      8  N1  F09     1      -4.088   0.995   0.448  0.00  0.00    -0.263 NA
ATOM      9  C2  F09     1      -2.745   0.868   0.444  0.00  0.00    +0.119 A 
ATOM     10  C3  F09     1      -2.057  -0.284  -0.019  0.00  0.00    +0.000 A 
ATOM     11  C12 F09     1      -2.861  -1.347  -0.500  0.00  0.00    +0.011 A 
ATOM     12  C13 F09     1      -4.259  -1.217  -0.500  0.00  0.00    +0.020 A 
ENDBRANCH   1  10
BRANCH   4  13
ATOM     13  O1  F09     1       3.673  -0.579   0.061  0.00  0.00    -0.491 OA
ATOM     14  C8  F09     1       4.429  -1.799   0.157  0.00  0.00    +0.277 C 
ENDBRANCH   4  13
BRANCH   5  15
ATOM     15  O2  F09     1       2.438   1.866  -0.126  0.00  0.00    -0.491 OA
ATOM     16  C10 F09     1       1.911   3.201  -0.224  0.00  0.00    +0.277 C 
ENDBRANCH   5  15
TORSDOF 3
