REMARK  Name = ligands_pdb/F3_CHEMBL281992.pdb
REMARK  4 active torsions:
REMARK  status: ('A' for Active; 'I' for Inactive)
REMARK    1  A    between atoms: C3_6  and  C4_7
REMARK    2  A    between atoms: C4_7  and  O2_9
REMARK    3  A    between atoms: O2_9  and  C5_10
REMARK    4  A    between atoms: C8_15  and  C9_16
REMARK                            x       y       z     vdW  Elec       q    Type
REMARK                         _______ _______ _______ _____ _____    ______ ____
ROOT
ATOM      1  C5  F05     1      -0.296   0.269  -0.014  0.00  0.00    +0.132 A 
ATOM      2  C6  F05     1       0.365  -0.738  -0.739  0.00  0.00    +0.047 A 
ATOM      3  C7  F05     1       1.767  -0.808  -0.729  0.00  0.00    +0.012 A 
ATOM      4  C8  F05     1       2.548   0.129  -0.005  0.00  0.00    -0.018 A 
ATOM      5  C15 F05     1       1.858   1.146   0.704  0.00  0.00    +0.012 A 
ATOM      6  C16 F05     1       0.455   1.216   0.697  0.00  0.00    +0.047 A 
ENDROOT
BRANCH   4   7
ATOM      7  C9  F05     1       4.047   0.052   0.004  0.00  0.00    -0.018 A 
ATOM      8  C10 F05     1       4.843   1.216   0.163  0.00  0.00    +0.008 A 
ATOM      9  C11 F05     1       6.246   1.144   0.170  0.00  0.00    +0.001 A 
ATOM     10  C12 F05     1       6.888  -0.095   0.020  0.00  0.00    +0.000 A 
ATOM     11  C13 F05     1       6.124  -1.260  -0.138  0.00  0.00    +0.001 A 
ATOM     12  C14 F05     1       4.721  -1.187  -0.147  0.00  0.00    +0.008 A 
ENDBRANCH   4   7
BRANCH   1  13
ATOM     13  O2  F05     1      -1.668   0.379  -0.018  0.00  0.00    -0.421 OA
BRANCH  13  14
ATOM     14  C4  F05     1      -2.556  -0.653   0.136  0.00  0.00    +0.364 C 
ATOM     15  O1  F05     1      -2.222  -1.801   0.388  0.00  0.00    -0.243 OA
BRANCH  14  19
ATOM     16  C1  F05     1      -6.626   0.410  -0.120  0.00  0.00    +0.130 A 
ATOM     17  N1  F05     1      -6.334  -0.879   0.145  0.00  0.00    -0.259 NA
ATOM     18  C2  F05     1      -5.024  -1.197   0.223  0.00  0.00    +0.145 A 
ATOM     19  C3  F05     1      -4.002  -0.240   0.040  0.00  0.00    +0.166 A 
ATOM     20  N2  F05     1      -4.309   1.053  -0.227  0.00  0.00    -0.245 NA
ATOM     21  C17 F05     1      -5.617   1.373  -0.306  0.00  0.00    +0.131 A 
ENDBRANCH  14  19
ENDBRANCH  13  14
ENDBRANCH   1  13
TORSDOF 4
