REMARK  Name = ligands_pdb/F3_CHEMBL27143.pdb
REMARK  14 active torsions:
REMARK  status: ('A' for Active; 'I' for Inactive)
REMARK    1  A    between atoms: N2_6  and  C3_7
REMARK    2  A    between atoms: C3_7  and  C4_10
REMARK    3  A    between atoms: C4_10  and  O1_13
REMARK    4  A    between atoms: O1_13  and  C5_14
REMARK    5  A    between atoms: C8_19  and  C9_20
REMARK    6  A    between atoms: N3_22  and  C10_24
REMARK    7  A    between atoms: C10_24  and  C11_26
REMARK    8  A    between atoms: C10_24  and  C13_33
REMARK    9  A    between atoms: C11_26  and  O4_28
REMARK   10  A    between atoms: O4_28  and  C12_29
REMARK   11  A    between atoms: C13_33  and  C14_36
REMARK   12  A    between atoms: C14_36  and  C15_38
REMARK   13  A    between atoms: C14_36  and  C16_42
REMARK   14  A    between atoms: C17_46  and  C18_47
REMARK                            x       y       z     vdW  Elec       q    Type
REMARK                         _______ _______ _______ _____ _____    ______ ____
ROOT
ATOM      1  C5  F04     1       2.349   0.664   0.306  0.00  0.00    +0.121 A 
ATOM      2  C6  F04     1       1.883  -0.662   0.340  0.00  0.00    +0.046 A 
ATOM      3  C7  F04     1       0.505  -0.920   0.389  0.00  0.00    +0.017 A 
ATOM      4  C8  F04     1      -0.435   0.134   0.397  0.00  0.00    +0.045 A 
ATOM      5  C17 F04     1       0.028   1.482   0.345  0.00  0.00    -0.002 A 
ATOM      6  C24 F04     1       1.424   1.717   0.313  0.00  0.00    +0.055 A 
ENDROOT
BRANCH   5   7
ATOM      7  C18 F04     1      -0.889   2.662   0.275  0.00  0.00    -0.017 A 
ATOM      8  C19 F04     1      -0.750   3.742   1.180  0.00  0.00    +0.008 A 
ATOM      9  C20 F04     1      -1.602   4.856   1.111  0.00  0.00    +0.001 A 
ATOM     10  C21 F04     1      -2.602   4.917   0.127  0.00  0.00    +0.000 A 
ATOM     11  C22 F04     1      -2.744   3.866  -0.792  0.00  0.00    +0.001 A 
ATOM     12  C23 F04     1      -1.890   2.753  -0.722  0.00  0.00    +0.008 A 
ENDBRANCH   5   7
BRANCH   4  13
ATOM     13  C9  F04     1      -1.902  -0.198   0.528  0.00  0.00    +0.245 C 
ATOM     14  O2  F04     1      -2.677   0.499   1.160  0.00  0.00    -0.270 OA
ATOM     15  N3  F04     1      -2.307  -1.383  -0.065  0.00  0.00    -0.298 N 
ATOM     16  H9  F04     1      -1.610  -1.928  -0.557  0.00  0.00    +0.150 HD
BRANCH  15  17
ATOM     17  C10 F04     1      -3.689  -1.899  -0.044  0.00  0.00    +0.182 C 
BRANCH  17  18
ATOM     18  C11 F04     1      -3.634  -3.424   0.121  0.00  0.00    +0.327 C 
ATOM     19  O3  F04     1      -2.880  -4.152  -0.507  0.00  0.00    -0.249 OA
BRANCH  18  20
ATOM     20  O4  F04     1      -4.571  -3.861   1.015  0.00  0.00    -0.467 OA
ATOM     21  C12 F04     1      -4.677  -5.270   1.285  0.00  0.00    +0.280 C 
ENDBRANCH  18  20
ENDBRANCH  17  18
BRANCH  17  22
ATOM     22  C13 F04     1      -4.473  -1.544  -1.335  0.00  0.00    +0.036 C 
BRANCH  22  23
ATOM     23  C14 F04     1      -4.768  -0.033  -1.538  0.00  0.00    -0.015 C 
ATOM     24  C15 F04     1      -5.350   0.217  -2.948  0.00  0.00    +0.007 C 
ATOM     25  C16 F04     1      -5.725   0.531  -0.461  0.00  0.00    +0.007 C 
ENDBRANCH  22  23
ENDBRANCH  17  22
ENDBRANCH  15  17
ENDBRANCH   4  13
BRANCH   1  26
ATOM     26  O1  F04     1       3.690   0.982   0.257  0.00  0.00    -0.490 OA
BRANCH  26  27
ATOM     27  C4  F04     1       4.731  -0.005   0.154  0.00  0.00    +0.250 C 
BRANCH  27  28
ATOM     28  C3  F04     1       6.080   0.732   0.090  0.00  0.00    +0.163 C 
BRANCH  28  32
ATOM     29  C1  F04     1       8.907  -1.519   0.376  0.00  0.00    +0.130 A 
ATOM     30  N1  F04     1       8.776  -1.468  -0.989  0.00  0.00    -0.244 NA
ATOM     31  C2  F04     1       7.761  -0.658  -1.220  0.00  0.00    +0.199 A 
ATOM     32  N2  F04     1       7.221  -0.181  -0.043  0.00  0.00    -0.334 N 
ATOM     33  C25 F04     1       7.960  -0.732   0.981  0.00  0.00    +0.107 A 
ENDBRANCH  28  32
ENDBRANCH  27  28
ENDBRANCH  26  27
ENDBRANCH   1  26
TORSDOF 11
