REMARK  Name = ligands_pdb/F3_CHEMBL17547.pdb
REMARK  7 active torsions:
REMARK  status: ('A' for Active; 'I' for Inactive)
REMARK    1  A    between atoms: O1_2  and  C1_3
REMARK    2  A    between atoms: C1_3  and  C2_6
REMARK    3  A    between atoms: C2_6  and  S1_9
REMARK    4  A    between atoms: S1_9  and  C3_10
REMARK    5  A    between atoms: C4_12  and  C5_13
REMARK    6  A    between atoms: C14_30  and  C15_31
REMARK    7  A    between atoms: C14_30  and  C16_35
REMARK                            x       y       z     vdW  Elec       q    Type
REMARK                         _______ _______ _______ _____ _____    ______ ____
ROOT
ATOM      1  C3  F03     1      -1.337   0.045   0.665  0.00  0.00    +0.056 A 
ATOM      2  S2  F03     1      -0.676  -1.578   0.636  0.00  0.00    -0.079 S 
ATOM      3  C4  F03     1       0.911  -0.830   0.448  0.00  0.00    +0.042 A 
ATOM      4  C10 F03     1       0.859   0.554   0.374  0.00  0.00    -0.019 A 
ATOM      5  C11 F03     1      -0.410   1.034   0.512  0.00  0.00    +0.042 A 
ATOM      6  C12 F03     1      -0.670   2.435   0.470  0.00  0.00    +0.166 C 
ATOM      7  O2  F03     1      -1.807   2.874   0.475  0.00  0.00    -0.292 OA
ATOM      8  C13 F03     1       0.537   3.382   0.390  0.00  0.00    +0.086 C 
ATOM      9  C14 F03     1       1.711   2.800  -0.443  0.00  0.00    -0.024 C 
ATOM     10  C15 F03     1       1.299   2.664  -1.935  0.00  0.00    +0.011 C 
ATOM     11  C16 F03     1       2.933   3.748  -0.351  0.00  0.00    +0.011 C 
ATOM     12  C17 F03     1       2.085   1.412   0.142  0.00  0.00    +0.044 C 
ENDROOT
BRANCH   3  13
ATOM     13  C5  F03     1       2.165  -1.578   0.326  0.00  0.00    +0.078 A 
ATOM     14  N1  F03     1       3.179  -1.267   1.164  0.00  0.00    -0.254 NA
ATOM     15  C6  F03     1       4.326  -1.972   1.089  0.00  0.00    +0.111 A 
ATOM     16  C7  F03     1       4.510  -3.030   0.182  0.00  0.00    +0.020 A 
ATOM     17  C8  F03     1       3.455  -3.371  -0.678  0.00  0.00    +0.004 A 
ATOM     18  C9  F03     1       2.261  -2.636  -0.599  0.00  0.00    +0.029 A 
ENDBRANCH   3  13
BRANCH   1  19
ATOM     19  S1  F03     1      -3.085   0.215   0.870  0.00  0.00    -0.115 S 
BRANCH  19  20
ATOM     20  C2  F03     1      -3.775  -1.280   0.039  0.00  0.00    +0.102 C 
BRANCH  20  21
ATOM     21  C1  F03     1      -5.311  -1.206  -0.003  0.00  0.00    +0.167 C 
BRANCH  21  23
ATOM     22  H1  F03     1      -6.807  -2.282  -0.661  0.00  0.00    +0.209 HD
ATOM     23  O1  F03     1      -5.836  -2.362  -0.651  0.00  0.00    -0.394 OA
ENDBRANCH  21  23
ENDBRANCH  20  21
ENDBRANCH  19  20
ENDBRANCH   1  19
TORSDOF 5
