REMARK  Name = ligands_pdb/F3_CHEMBL287742.pdb
REMARK  5 active torsions:
REMARK  status: ('A' for Active; 'I' for Inactive)
REMARK    1  A    between atoms: C9_14  and  C10_15
REMARK    2  A    between atoms: C10_15  and  O2_17
REMARK    3  A    between atoms: O2_17  and  C11_18
REMARK    4  A    between atoms: C12_22  and  O3_23
REMARK    5  A    between atoms: O3_23  and  C13_24
REMARK                            x       y       z     vdW  Elec       q    Type
REMARK                         _______ _______ _______ _____ _____    ______ ____
ROOT
ATOM      1  C1  F07     1       3.617  -2.419  -0.135  0.00  0.00    +0.001 A 
ATOM      2  C2  F07     1       4.730  -1.586   0.023  0.00  0.00    +0.000 A 
ATOM      3  C3  F07     1       4.546  -0.207   0.178  0.00  0.00    +0.004 A 
ATOM      4  C4  F07     1       3.252   0.347   0.165  0.00  0.00    -0.039 A 
ATOM      5  C5  F07     1       2.112  -0.482   0.002  0.00  0.00    -0.014 A 
ATOM      6  C6  F07     1       2.322  -1.876  -0.142  0.00  0.00    +0.009 A 
ATOM      7  C7  F07     1       0.809   0.097  -0.014  0.00  0.00    -0.013 A 
ATOM      8  C8  F07     1      -0.365  -0.687   0.075  0.00  0.00    +0.027 A 
ATOM      9  C9  F07     1      -1.656  -0.112   0.073  0.00  0.00    +0.101 A 
ATOM     10  C12 F07     1      -1.777   1.292  -0.034  0.00  0.00    +0.134 A 
ATOM     11  C14 F07     1      -0.616   2.081  -0.135  0.00  0.00    +0.050 A 
ATOM     12  C15 F07     1       0.661   1.499  -0.121  0.00  0.00    -0.036 A 
ATOM     13  C16 F07     1       1.874   2.395  -0.318  0.00  0.00    +0.040 C 
ATOM     14  C17 F07     1       3.096   1.837   0.419  0.00  0.00    +0.040 C 
ENDROOT
BRANCH   9  15
ATOM     15  C10 F07     1      -2.869  -1.009   0.196  0.00  0.00    +0.343 C 
ATOM     16  O1  F07     1      -3.963  -0.629   0.582  0.00  0.00    -0.245 OA
BRANCH  15  17
ATOM     17  O2  F07     1      -2.622  -2.313  -0.147  0.00  0.00    -0.464 OA
ATOM     18  C11 F07     1      -3.688  -3.278  -0.072  0.00  0.00    +0.280 C 
ENDBRANCH  15  17
ENDBRANCH   9  15
BRANCH  10  19
ATOM     19  O3  F07     1      -3.032   1.873  -0.077  0.00  0.00    -0.494 OA
ATOM     20  C13 F07     1      -3.269   3.292  -0.078  0.00  0.00    +0.277 C 
ENDBRANCH  10  19
TORSDOF 3
