REMARK  Name = ligands_pdb/F3_CHEMBL13794.pdb
REMARK  9 active torsions:
REMARK  status: ('A' for Active; 'I' for Inactive)
REMARK    1  A    between atoms: C4_7  and  C5_8
REMARK    2  A    between atoms: N3_23  and  C14_24
REMARK    3  A    between atoms: N3_23  and  C17_35
REMARK    4  A    between atoms: C14_24  and  C15_27
REMARK    5  A    between atoms: C15_27  and  O1_30
REMARK    6  A    between atoms: O1_30  and  C16_31
REMARK    7  A    between atoms: C17_35  and  C18_38
REMARK    8  A    between atoms: C18_38  and  O2_41
REMARK    9  A    between atoms: O2_41  and  C19_42
REMARK                            x       y       z     vdW  Elec       q    Type
REMARK                         _______ _______ _______ _____ _____    ______ ____
ROOT
ATOM      1  C5  F01     1      -2.701   1.110  -0.224  0.00  0.00    +0.185 A 
ATOM      2  N1  F01     1      -3.145   2.372  -0.560  0.00  0.00    -0.127 NA
ATOM      3  N2  F01     1      -2.103   3.180  -0.586  0.00  0.00    -0.127 NA
ATOM      4  C6  F01     1      -1.025   2.471  -0.296  0.00  0.00    +0.186 A 
ATOM      5  C7  F01     1       0.280   2.914  -0.171  0.00  0.00    +0.031 A 
ATOM      6  C8  F01     1       0.630   4.273  -0.284  0.00  0.00    +0.012 A 
ATOM      7  C9  F01     1       1.959   4.673  -0.081  0.00  0.00    +0.001 A 
ATOM      8  C10 F01     1       2.930   3.717   0.252  0.00  0.00    +0.001 A 
ATOM      9  C11 F01     1       2.577   2.362   0.363  0.00  0.00    +0.012 A 
ATOM     10  C12 F01     1       1.252   1.939   0.125  0.00  0.00    +0.027 A 
ATOM     11  C13 F01     1       0.822   0.521   0.221  0.00  0.00    +0.150 A 
ATOM     12  N3  F01     1       1.752  -0.512   0.321  0.00  0.00    -0.309 N 
ATOM     13  N4  F01     1      -0.459   0.137   0.169  0.00  0.00    -0.147 NA
ATOM     14  N5  F01     1      -1.349   1.150  -0.063  0.00  0.00    -0.190 N 
ENDROOT
BRANCH   1  18
ATOM     15  C1  F01     1      -5.333  -2.270   0.092  0.00  0.00    +0.000 A 
ATOM     16  C2  F01     1      -5.636  -1.216  -0.784  0.00  0.00    +0.001 A 
ATOM     17  C3  F01     1      -4.772  -0.113  -0.883  0.00  0.00    +0.011 A 
ATOM     18  C4  F01     1      -3.592  -0.052  -0.112  0.00  0.00    +0.021 A 
ATOM     19  C20 F01     1      -3.304  -1.113   0.771  0.00  0.00    +0.011 A 
ATOM     20  C21 F01     1      -4.168  -2.216   0.871  0.00  0.00    +0.001 A 
ENDBRANCH   1  18
BRANCH  12  21
ATOM     21  C14 F01     1       1.478  -1.705   1.168  0.00  0.00    +0.134 C 
BRANCH  21  22
ATOM     22  C15 F01     1       0.673  -2.823   0.456  0.00  0.00    +0.178 C 
BRANCH  22  23
ATOM     23  O1  F01     1       1.547  -3.593  -0.387  0.00  0.00    -0.381 OA
ATOM     24  C16 F01     1       0.894  -4.634  -1.129  0.00  0.00    +0.194 C 
ENDBRANCH  22  23
ENDBRANCH  21  22
ENDBRANCH  12  21
BRANCH  12  25
ATOM     25  C17 F01     1       2.801  -0.680  -0.717  0.00  0.00    +0.134 C 
BRANCH  25  26
ATOM     26  C18 F01     1       4.226  -0.855  -0.136  0.00  0.00    +0.178 C 
BRANCH  26  27
ATOM     27  O2  F01     1       4.478  -2.248   0.111  0.00  0.00    -0.381 OA
ATOM     28  C19 F01     1       5.767  -2.533   0.676  0.00  0.00    +0.194 C 
ENDBRANCH  26  27
ENDBRANCH  25  26
ENDBRANCH  12  25
TORSDOF 7
