REMARK  Name = ligands_pdb/F3_CHEMBL28363.pdb
REMARK  6 active torsions:
REMARK  status: ('A' for Active; 'I' for Inactive)
REMARK    1  A    between atoms: O1_2  and  C1_3
REMARK    2  A    between atoms: C4_8  and  O2_9
REMARK    3  A    between atoms: O2_9  and  C5_10
REMARK    4  A    between atoms: C5_10  and  C6_13
REMARK    5  A    between atoms: C15_32  and  C16_34
REMARK    6  A    between atoms: C16_34  and  C17_37
REMARK                            x       y       z     vdW  Elec       q    Type
REMARK                         _______ _______ _______ _____ _____    ______ ____
ROOT
ATOM      1  C1  F06     1       1.402  -0.997  -0.288  0.00  0.00    +0.155 C 
ATOM      2  C2  F06     1       0.286   0.042  -0.268  0.00  0.00    +0.026 A 
ATOM      3  C3  F06     1      -1.049  -0.357  -0.072  0.00  0.00    +0.055 A 
ATOM      4  C4  F06     1      -2.085   0.590  -0.065  0.00  0.00    +0.122 A 
ATOM      5  C11 F06     1      -1.784   1.955  -0.248  0.00  0.00    +0.049 A 
ATOM      6  C12 F06     1      -0.453   2.360  -0.440  0.00  0.00    +0.049 A 
ATOM      7  C13 F06     1       0.578   1.408  -0.459  0.00  0.00    +0.126 A 
ATOM      8  O3  F06     1       1.878   1.836  -0.627  0.00  0.00    -0.491 OA
ATOM      9  C14 F06     1       2.927   0.906  -0.964  0.00  0.00    +0.235 C 
ATOM     10  C15 F06     1       2.790  -0.340  -0.057  0.00  0.00    +0.064 C 
ENDROOT
BRANCH   1  12
ATOM     11  H1  F06     1       0.457  -2.022  -1.665  0.00  0.00    +0.210 HD
ATOM     12  O1  F06     1       1.365  -1.693  -1.537  0.00  0.00    -0.387 OA
ENDBRANCH   1  12
BRANCH   4  13
ATOM     13  O2  F06     1      -3.372   0.131   0.126  0.00  0.00    -0.486 OA
BRANCH  13  14
ATOM     14  C5  F06     1      -4.537   0.970  -0.006  0.00  0.00    +0.284 C 
BRANCH  14  15
ATOM     15  C6  F06     1      -5.802   0.153   0.220  0.00  0.00    +0.078 A 
ATOM     16  N1  F06     1      -6.800   0.773   0.888  0.00  0.00    -0.256 NA
ATOM     17  C7  F06     1      -7.949   0.099   1.104  0.00  0.00    +0.111 A 
ATOM     18  C8  F06     1      -8.155  -1.218   0.659  0.00  0.00    +0.020 A 
ATOM     19  C9  F06     1      -7.124  -1.863  -0.041  0.00  0.00    +0.003 A 
ATOM     20  C10 F06     1      -5.927  -1.164  -0.267  0.00  0.00    +0.027 A 
ENDBRANCH  14  15
ENDBRANCH  13  14
ENDBRANCH   4  13
BRANCH  10  21
ATOM     21  C16 F06     1       3.960  -1.342  -0.251  0.00  0.00    +0.046 C 
BRANCH  21  22
ATOM     22  C17 F06     1       5.308  -0.766   0.160  0.00  0.00    -0.029 A 
ATOM     23  C18 F06     1       5.665  -0.670   1.520  0.00  0.00    +0.114 A 
ATOM     24  N2  F06     1       6.843  -0.165   1.938  0.00  0.00    -0.263 NA
ATOM     25  C19 F06     1       7.720   0.266   1.009  0.00  0.00    +0.111 A 
ATOM     26  C20 F06     1       7.456   0.210  -0.370  0.00  0.00    +0.020 A 
ATOM     27  C21 F06     1       6.229  -0.316  -0.803  0.00  0.00    +0.006 A 
ENDBRANCH  21  22
ENDBRANCH  10  21
TORSDOF 6
