REMARK  Name = ligands_pdb/F3_CHEMBL288670.pdb
REMARK  11 active torsions:
REMARK  status: ('A' for Active; 'I' for Inactive)
REMARK    1  A    between atoms: O1_2  and  N1_3
REMARK    2  A    between atoms: C1_5  and  C2_7
REMARK    3  A    between atoms: C6_13  and  C7_14
REMARK    4  A    between atoms: N4_19  and  C8_20
REMARK    5  A    between atoms: C9_24  and  N5_25
REMARK    6  A    between atoms: N5_25  and  C10_26
REMARK    7  A    between atoms: N5_25  and  S1_39
REMARK    8  A    between atoms: C10_26  and  C11_29
REMARK    9  A    between atoms: S1_39  and  C16_42
REMARK   10  A    between atoms: C19_47  and  O5_48
REMARK   11  A    between atoms: O5_48  and  C20_49
REMARK                            x       y       z     vdW  Elec       q    Type
REMARK                         _______ _______ _______ _____ _____    ______ ____
ROOT
ATOM      1  N5  F08     1      -0.804  -0.371  -0.707  0.00  0.00    -0.197 N 
ENDROOT
BRANCH   1  12
ATOM      2  C2  F08     1      -1.097   0.173   1.679  0.00  0.00    +0.080 A 
ATOM      3  C3  F08     1      -2.003   0.472   2.725  0.00  0.00    +0.128 A 
ATOM      4  N2  F08     1      -3.338   0.553   2.565  0.00  0.00    -0.235 NA
ATOM      5  C4  F08     1      -3.822   0.364   1.326  0.00  0.00    +0.160 A 
ATOM      6  C5  F08     1      -3.021   0.084   0.238  0.00  0.00    +0.065 A 
ATOM      7  C6  F08     1      -3.916   0.002  -0.903  0.00  0.00    +0.071 A 
ATOM      8  C7  F08     1      -3.610  -0.146  -2.371  0.00  0.00    +0.068 C 
ATOM      9  N3  F08     1      -5.227   0.183  -0.498  0.00  0.00    -0.174 NA
ATOM     10  N4  F08     1      -5.123   0.393   0.854  0.00  0.00    -0.249 N 
ATOM     11  C8  F08     1      -6.317   0.645   1.667  0.00  0.00    +0.174 C 
ATOM     12  C9  F08     1      -1.623  -0.060   0.379  0.00  0.00    +0.078 A 
BRANCH   2  15
ATOM     13  N1  F08     1       0.822   0.935   3.004  0.00  0.00    -0.193 N 
ATOM     14  H2  F08     1       0.208   1.575   3.495  0.00  0.00    +0.183 HD
ATOM     15  C1  F08     1       0.377   0.099   1.990  0.00  0.00    +0.270 C 
ATOM     16  O2  F08     1       1.145  -0.632   1.391  0.00  0.00    -0.268 OA
BRANCH  13  18
ATOM     17  H1  F08     1       2.337   0.323   3.945  0.00  0.00    +0.241 HD
ATOM     18  O1  F08     1       2.198   1.048   3.306  0.00  0.00    -0.295 OA
ENDBRANCH  13  18
ENDBRANCH   2  15
ENDBRANCH   1  12
BRANCH   1  19
ATOM     19  S1  F08     1      -0.063   0.864  -1.659  0.00  0.00    +0.075 S 
ATOM     20  O3  F08     1       0.110   0.309  -3.001  0.00  0.00    -0.150 OA
ATOM     21  O4  F08     1      -0.900   2.038  -1.414  0.00  0.00    -0.150 OA
BRANCH  19  22
ATOM     22  C16 F08     1       1.571   1.196  -0.984  0.00  0.00    +0.109 A 
ATOM     23  C17 F08     1       2.671   0.424  -1.386  0.00  0.00    +0.032 A 
ATOM     24  C18 F08     1       3.940   0.673  -0.841  0.00  0.00    +0.047 A 
ATOM     25  C19 F08     1       4.118   1.701   0.099  0.00  0.00    +0.120 A 
ATOM     26  C21 F08     1       3.017   2.497   0.478  0.00  0.00    +0.047 A 
ATOM     27  C22 F08     1       1.749   2.244  -0.067  0.00  0.00    +0.032 A 
BRANCH  25  28
ATOM     28  O5  F08     1       5.384   1.893   0.609  0.00  0.00    -0.495 OA
ATOM     29  C20 F08     1       5.671   2.809   1.680  0.00  0.00    +0.277 C 
ENDBRANCH  25  28
ENDBRANCH  19  22
ENDBRANCH   1  19
BRANCH   1  30
ATOM     30  C10 F08     1      -0.940  -1.709  -1.323  0.00  0.00    +0.168 C 
BRANCH  30  31
ATOM     31  C11 F08     1       0.259  -2.604  -1.060  0.00  0.00    -0.010 A 
ATOM     32  C12 F08     1       0.375  -3.316   0.149  0.00  0.00    +0.116 A 
ATOM     33  N6  F08     1       1.414  -4.129   0.429  0.00  0.00    -0.263 NA
ATOM     34  C13 F08     1       2.381  -4.272  -0.499  0.00  0.00    +0.111 A 
ATOM     35  C14 F08     1       2.346  -3.616  -1.742  0.00  0.00    +0.020 A 
ATOM     36  C15 F08     1       1.262  -2.771  -2.030  0.00  0.00    +0.008 A 
ENDBRANCH  30  31
ENDBRANCH   1  30
TORSDOF 8
