REMARK  Name = ligands_pdb/F3_CHEMBL14006.pdb
REMARK  9 active torsions:
REMARK  status: ('A' for Active; 'I' for Inactive)
REMARK    1  A    between atoms: C3_5  and  C4_6
REMARK    2  A    between atoms: N3_21  and  C13_22
REMARK    3  A    between atoms: N3_21  and  C16_33
REMARK    4  A    between atoms: C13_22  and  C14_25
REMARK    5  A    between atoms: C14_25  and  O1_28
REMARK    6  A    between atoms: O1_28  and  C15_29
REMARK    7  A    between atoms: C16_33  and  C17_36
REMARK    8  A    between atoms: C17_36  and  O2_39
REMARK    9  A    between atoms: O2_39  and  C18_40
REMARK                            x       y       z     vdW  Elec       q    Type
REMARK                         _______ _______ _______ _____ _____    ______ ____
ROOT
ATOM      1  C4  F02     1      -2.185   1.696  -0.278  0.00  0.00    +0.185 A 
ATOM      2  N1  F02     1      -2.426   2.965  -0.564  0.00  0.00    -0.127 NA
ATOM      3  N2  F02     1      -1.236   3.646  -0.554  0.00  0.00    -0.127 NA
ATOM      4  C5  F02     1      -0.296   2.763  -0.283  0.00  0.00    +0.186 A 
ATOM      5  C6  F02     1       1.127   2.975  -0.132  0.00  0.00    +0.031 A 
ATOM      6  C7  F02     1       1.725   4.246  -0.211  0.00  0.00    +0.012 A 
ATOM      7  C8  F02     1       3.102   4.380   0.014  0.00  0.00    +0.001 A 
ATOM      8  C9  F02     1       3.868   3.249   0.335  0.00  0.00    +0.001 A 
ATOM      9  C10 F02     1       3.263   1.983   0.412  0.00  0.00    +0.012 A 
ATOM     10  C11 F02     1       1.885   1.824   0.152  0.00  0.00    +0.027 A 
ATOM     11  C12 F02     1       1.190   0.507   0.213  0.00  0.00    +0.150 A 
ATOM     12  N3  F02     1       1.913  -0.679   0.313  0.00  0.00    -0.309 N 
ATOM     13  N4  F02     1      -0.139   0.355   0.127  0.00  0.00    -0.147 NA
ATOM     14  N5  F02     1      -0.826   1.515  -0.104  0.00  0.00    -0.190 N 
ENDROOT
BRANCH   1  17
ATOM     15  C1  F02     1      -5.352  -0.253  -0.986  0.00  0.00    +0.039 A 
ATOM     16  C2  F02     1      -4.350   0.730  -1.047  0.00  0.00    +0.014 A 
ATOM     17  C3  F02     1      -3.222   0.658  -0.204  0.00  0.00    +0.021 A 
ATOM     18  C19 F02     1      -3.124  -0.407   0.716  0.00  0.00    +0.014 A 
ATOM     19  C20 F02     1      -4.126  -1.390   0.779  0.00  0.00    +0.039 A 
ATOM     20  C21 F02     1      -5.236  -1.313  -0.075  0.00  0.00    +0.123 A 
ATOM     21  F1  F02     1      -6.197  -2.257  -0.015  0.00  0.00    -0.205 F 
ENDBRANCH   1  17
BRANCH  12  22
ATOM     22  C13 F02     1       1.427  -1.800   1.163  0.00  0.00    +0.134 C 
BRANCH  22  23
ATOM     23  C14 F02     1       0.432  -2.757   0.456  0.00  0.00    +0.178 C 
BRANCH  23  24
ATOM     24  O1  F02     1       1.148  -3.661  -0.402  0.00  0.00    -0.381 OA
ATOM     25  C15 F02     1       0.317  -4.572  -1.135  0.00  0.00    +0.194 C 
ENDBRANCH  23  24
ENDBRANCH  22  23
ENDBRANCH  12  22
BRANCH  12  26
ATOM     26  C16 F02     1       2.916  -1.034  -0.724  0.00  0.00    +0.134 C 
BRANCH  26  27
ATOM     27  C17 F02     1       4.280  -1.482  -0.143  0.00  0.00    +0.178 C 
BRANCH  27  28
ATOM     28  O2  F02     1       4.262  -2.900   0.093  0.00  0.00    -0.381 OA
ATOM     29  C18 F02     1       5.473  -3.429   0.655  0.00  0.00    +0.194 C 
ENDBRANCH  27  28
ENDBRANCH  26  27
ENDBRANCH  12  26
TORSDOF 7
