REMARK  Name = ligands_pdb/TRN_CHEMBL334246.pdb
REMARK  5 active torsions:
REMARK  status: ('A' for Active; 'I' for Inactive)
REMARK    1  A    between atoms: C1_1  and  C2_2
REMARK    2  A    between atoms: C3_5  and  C4_6
REMARK    3  A    between atoms: C8_12  and  O2_13
REMARK    4  A    between atoms: O2_13  and  C9_14
REMARK    5  A    between atoms: C9_14  and  C10_15
REMARK                            x       y       z     vdW  Elec       q    Type
REMARK                         _______ _______ _______ _____ _____    ______ ____
ROOT
ATOM      1  C4  T14     1       2.460  -1.318  -0.003  0.00  0.00    +0.243 A 
ATOM      2  N2  T14     1       2.612  -2.699  -0.004  0.00  0.00    -0.122 NA
ATOM      3  N3  T14     1       1.419  -3.255  -0.004  0.00  0.00    -0.127 NA
ATOM      4  C5  T14     1       0.563  -2.211  -0.003  0.00  0.00    +0.182 A 
ATOM      5  C6  T14     1      -0.840  -2.279  -0.002  0.00  0.00    +0.010 A 
ATOM      6  C7  T14     1      -1.573  -1.078   0.000  0.00  0.00    +0.026 A 
ATOM      7  C8  T14     1      -0.894   0.162   0.000  0.00  0.00    +0.237 A 
ATOM      8  N6  T14     1       0.461   0.207   0.000  0.00  0.00    -0.125 NA
ATOM      9  N7  T14     1       1.130  -0.973  -0.002  0.00  0.00    -0.185 N 
ATOM     10  C13 T14     1      -3.087  -1.281   0.000  0.00  0.00    +0.025 C 
ATOM     11  C14 T14     1      -3.430  -2.134   1.256  0.00  0.00    +0.009 C 
ATOM     12  C15 T14     1      -2.610  -3.466   1.254  0.00  0.00    +0.009 C 
ATOM     13  C16 T14     1      -1.696  -3.542  -0.003  0.00  0.00    +0.023 C 
ATOM     14  C17 T14     1      -2.612  -3.464  -1.258  0.00  0.00    +0.009 C 
ATOM     15  C18 T14     1      -3.431  -2.132  -1.257  0.00  0.00    +0.009 C 
ENDROOT
BRANCH   1  20
ATOM     16  C1  T14     1       6.901   0.587   0.002  0.00  0.00    +0.091 C 
ATOM     17  C2  T14     1       5.407   0.418  -0.004  0.00  0.00    +0.169 A 
ATOM     18  N1  T14     1       4.562   1.506   0.000  0.00  0.00    -0.061 NA
ATOM     19  O1  T14     1       3.325   0.866  -0.001  0.00  0.00    -0.329 OA
ATOM     20  C3  T14     1       3.536  -0.468  -0.003  0.00  0.00    +0.298 A 
ATOM     21  N8  T14     1       4.816  -0.770  -0.003  0.00  0.00    -0.189 NA
ENDBRANCH   1  20
BRANCH   7  22
ATOM     22  O2  T14     1      -1.636   1.323   0.001  0.00  0.00    -0.467 OA
BRANCH  22  23
ATOM     23  C9  T14     1      -1.012   2.625   0.002  0.00  0.00    +0.304 C 
BRANCH  23  24
ATOM     24  C10 T14     1      -2.059   3.710   0.003  0.00  0.00    +0.145 A 
ATOM     25  N4  T14     1      -1.775   4.999   0.008  0.00  0.00    -0.237 NA
ATOM     26  C11 T14     1      -2.987   5.645   0.007  0.00  0.00    +0.130 A 
ATOM     27  C12 T14     1      -4.019   4.740   0.001  0.00  0.00    +0.104 A 
ATOM     28  N5  T14     1      -3.422   3.501  -0.002  0.00  0.00    -0.346 N 
ATOM     29  H1  T14     1      -3.883   2.602  -0.006  0.00  0.00    +0.167 HD
ENDBRANCH  23  24
ENDBRANCH  22  23
ENDBRANCH   7  22
TORSDOF 4
