REMARK  Name = ligands_pdb/TRN_CHEMBL179737.pdb
REMARK  6 active torsions:
REMARK  status: ('A' for Active; 'I' for Inactive)
REMARK    1  A    between atoms: O1_1  and  C1_2
REMARK    2  A    between atoms: C1_2  and  C2_3
REMARK    3  A    between atoms: C5_6  and  C6_7
REMARK    4  A    between atoms: C6_7  and  O2_8
REMARK    5  A    between atoms: O2_8  and  C7_9
REMARK    6  A    between atoms: C8_12  and  C9_13
REMARK                            x       y       z     vdW  Elec       q    Type
REMARK                         _______ _______ _______ _____ _____    ______ ____
ROOT
ATOM      1  C7  T10     1      -0.325  -0.567   0.042  0.00  0.00    +0.237 A 
ATOM      2  N1  T10     1      -0.961   0.632   0.058  0.00  0.00    -0.125 NA
ATOM      3  N2  T10     1      -2.318   0.633   0.078  0.00  0.00    -0.189 N 
ATOM      4  C8  T10     1      -3.258   1.641   0.049  0.00  0.00    +0.185 A 
ATOM      5  N3  T10     1      -4.467   1.068   0.000  0.00  0.00    -0.127 NA
ATOM      6  N4  T10     1      -4.350  -0.195   0.013  0.00  0.00    -0.127 NA
ATOM      7  C15 T10     1      -3.087  -0.486   0.053  0.00  0.00    +0.182 A 
ATOM      8  C16 T10     1      -2.464  -1.740   0.026  0.00  0.00    +0.010 A 
ATOM      9  C17 T10     1      -1.059  -1.776   0.028  0.00  0.00    +0.026 A 
ATOM     10  C18 T10     1      -0.482  -3.191  -0.007  0.00  0.00    +0.025 C 
ATOM     11  C19 T10     1      -1.046  -3.877  -1.285  0.00  0.00    +0.009 C 
ATOM     12  C20 T10     1      -2.609  -3.828  -1.292  0.00  0.00    +0.009 C 
ATOM     13  C21 T10     1      -3.137  -3.108  -0.017  0.00  0.00    +0.023 C 
ATOM     14  C22 T10     1      -2.621  -3.900   1.219  0.00  0.00    +0.009 C 
ATOM     15  C23 T10     1      -1.057  -3.946   1.226  0.00  0.00    +0.009 C 
ENDROOT
BRANCH   4  16
ATOM     16  C9  T10     1      -3.016   3.089   0.036  0.00  0.00    +0.021 A 
ATOM     17  C10 T10     1      -3.953   3.953  -0.568  0.00  0.00    +0.011 A 
ATOM     18  C11 T10     1      -3.739   5.341  -0.587  0.00  0.00    +0.001 A 
ATOM     19  C12 T10     1      -2.588   5.883   0.004  0.00  0.00    +0.000 A 
ATOM     20  C13 T10     1      -1.653   5.035   0.617  0.00  0.00    +0.001 A 
ATOM     21  C14 T10     1      -1.867   3.647   0.634  0.00  0.00    +0.011 A 
ENDBRANCH   4  16
BRANCH   1  22
ATOM     22  O2  T10     1       1.052  -0.632   0.030  0.00  0.00    -0.470 OA
BRANCH  22  23
ATOM     23  C6  T10     1       1.870   0.552   0.027  0.00  0.00    +0.266 C 
BRANCH  23  27
ATOM     24  C2  T10     1       6.043  -0.649  -0.027  0.00  0.00    -0.022 A 
ATOM     25  C3  T10     1       5.348  -0.443  -1.233  0.00  0.00    +0.006 A 
ATOM     26  C4  T10     1       3.998  -0.054  -1.215  0.00  0.00    +0.007 A 
ATOM     27  C5  T10     1       3.330   0.135   0.008  0.00  0.00    -0.010 A 
ATOM     28  C24 T10     1       4.024  -0.072   1.213  0.00  0.00    +0.007 A 
ATOM     29  C25 T10     1       5.374  -0.461   1.196  0.00  0.00    +0.006 A 
BRANCH  24  30
ATOM     30  C1  T10     1       7.503  -1.071  -0.047  0.00  0.00    +0.191 C 
BRANCH  30  31
ATOM     31  O1  T10     1       8.352   0.074  -0.044  0.00  0.00    -0.390 OA
ATOM     32  H1  T10     1       9.274  -0.238  -0.057  0.00  0.00    +0.210 HD
ENDBRANCH  30  31
ENDBRANCH  24  30
ENDBRANCH  23  27
ENDBRANCH  22  23
ENDBRANCH   1  22
TORSDOF 6
