REMARK  Name = ligands_pdb/TRN_CHEMBL50581.pdb
REMARK  4 active torsions:
REMARK  status: ('A' for Active; 'I' for Inactive)
REMARK    1  A    between atoms: C4_4  and  C5_5
REMARK    2  A    between atoms: C5_5  and  O1_6
REMARK    3  A    between atoms: O1_6  and  C6_7
REMARK    4  A    between atoms: C7_10  and  C8_11
REMARK                            x       y       z     vdW  Elec       q    Type
REMARK                         _______ _______ _______ _____ _____    ______ ____
ROOT
ATOM      1  C6  T20     1      -0.447  -0.835  -0.001  0.00  0.00    +0.241 A 
ATOM      2  N1  T20     1       0.450   0.179  -0.018  0.00  0.00    -0.125 NA
ATOM      3  N2  T20     1       1.761  -0.151  -0.038  0.00  0.00    -0.189 N 
ATOM      4  C7  T20     1       2.923   0.578  -0.029  0.00  0.00    +0.185 A 
ATOM      5  N3  T20     1       4.031  -0.255   0.007  0.00  0.00    -0.127 NA
ATOM      6  N4  T20     1       3.614  -1.502   0.015  0.00  0.00    -0.127 NA
ATOM      7  C14 T20     1       2.264  -1.414  -0.009  0.00  0.00    +0.186 A 
ATOM      8  C15 T20     1       1.355  -2.491   0.008  0.00  0.00    +0.033 A 
ATOM      9  C16 T20     1       1.788  -3.831   0.028  0.00  0.00    +0.012 A 
ATOM     10  C17 T20     1       0.848  -4.874   0.045  0.00  0.00    +0.001 A 
ATOM     11  C18 T20     1      -0.525  -4.583   0.044  0.00  0.00    +0.001 A 
ATOM     12  C19 T20     1      -0.965  -3.249   0.026  0.00  0.00    +0.014 A 
ATOM     13  C20 T20     1      -0.031  -2.192   0.009  0.00  0.00    +0.049 A 
ENDROOT
BRANCH   4  14
ATOM     14  C8  T20     1       3.048   2.041  -0.039  0.00  0.00    +0.021 A 
ATOM     15  C9  T20     1       4.153   2.660   0.581  0.00  0.00    +0.011 A 
ATOM     16  C10 T20     1       4.286   4.059   0.577  0.00  0.00    +0.001 A 
ATOM     17  C11 T20     1       3.318   4.855  -0.053  0.00  0.00    +0.000 A 
ATOM     18  C12 T20     1       2.218   4.250  -0.681  0.00  0.00    +0.001 A 
ATOM     19  C13 T20     1       2.085   2.852  -0.675  0.00  0.00    +0.011 A 
ENDBRANCH   4  14
BRANCH   1  20
ATOM     20  O1  T20     1      -1.799  -0.550   0.009  0.00  0.00    -0.470 OA
BRANCH  20  21
ATOM     21  C5  T20     1      -2.300   0.799   0.015  0.00  0.00    +0.266 C 
BRANCH  21  25
ATOM     22  C1  T20     1      -6.633   0.667   0.050  0.00  0.00    +0.000 A 
ATOM     23  C2  T20     1      -5.921   0.692   1.260  0.00  0.00    +0.000 A 
ATOM     24  C3  T20     1      -4.517   0.735   1.248  0.00  0.00    +0.007 A 
ATOM     25  C4  T20     1      -3.818   0.755   0.027  0.00  0.00    -0.010 A 
ATOM     26  C21 T20     1      -4.537   0.727  -1.182  0.00  0.00    +0.007 A 
ATOM     27  C22 T20     1      -5.941   0.684  -1.171  0.00  0.00    +0.000 A 
ENDBRANCH  21  25
ENDBRANCH  20  21
ENDBRANCH   1  20
TORSDOF 4
