REMARK  Name = ligands_pdb/TRN_CHEMBL361105.pdb
REMARK  4 active torsions:
REMARK  status: ('A' for Active; 'I' for Inactive)
REMARK    1  A    between atoms: C4_4  and  C5_5
REMARK    2  A    between atoms: C5_5  and  O1_6
REMARK    3  A    between atoms: O1_6  and  C6_7
REMARK    4  A    between atoms: C7_10  and  C8_11
REMARK                            x       y       z     vdW  Elec       q    Type
REMARK                         _______ _______ _______ _____ _____    ______ ____
ROOT
ATOM      1  C6  T17     1      -0.479  -0.529  -0.061  0.00  0.00    +0.237 A 
ATOM      2  N1  T17     1       0.480   0.431  -0.032  0.00  0.00    -0.125 NA
ATOM      3  N2  T17     1       1.778   0.035  -0.037  0.00  0.00    -0.189 N 
ATOM      4  C7  T17     1       2.972   0.723   0.022  0.00  0.00    +0.187 A 
ATOM      5  N4  T17     1       3.958  -0.181   0.063  0.00  0.00    -0.127 NA
ATOM      6  N5  T17     1       3.477  -1.353   0.019  0.00  0.00    -0.127 NA
ATOM      7  C13 T17     1       2.186  -1.260  -0.039  0.00  0.00    +0.182 A 
ATOM      8  C14 T17     1       1.222  -2.277  -0.060  0.00  0.00    +0.010 A 
ATOM      9  C15 T17     1      -0.132  -1.900  -0.080  0.00  0.00    +0.026 A 
ATOM     10  C16 T17     1      -1.098  -3.083  -0.097  0.00  0.00    +0.025 C 
ATOM     11  C17 T17     1      -0.786  -3.939   1.166  0.00  0.00    +0.009 C 
ATOM     12  C18 T17     1       0.723  -4.350   1.192  0.00  0.00    +0.009 C 
ATOM     13  C19 T17     1       1.465  -3.783  -0.053  0.00  0.00    +0.023 C 
ATOM     14  C20 T17     1       0.765  -4.355  -1.319  0.00  0.00    +0.009 C 
ATOM     15  C21 T17     1      -0.743  -3.941  -1.346  0.00  0.00    +0.009 C 
ENDROOT
BRANCH   4  16
ATOM     16  C8  T17     1       3.167   2.177   0.060  0.00  0.00    +0.039 A 
ATOM     17  C9  T17     1       4.352   2.726   0.588  0.00  0.00    +0.014 A 
ATOM     18  C10 T17     1       4.512   4.121   0.604  0.00  0.00    +0.020 A 
ATOM     19  C11 T17     1       3.484   4.926   0.085  0.00  0.00    +0.111 A 
ATOM     20  N3  T17     1       2.351   4.414  -0.431  0.00  0.00    -0.263 NA
ATOM     21  C12 T17     1       2.199   3.073  -0.443  0.00  0.00    +0.122 A 
ENDBRANCH   4  16
BRANCH   1  22
ATOM     22  O1  T17     1      -1.815  -0.188  -0.067  0.00  0.00    -0.469 OA
BRANCH  22  23
ATOM     23  C5  T17     1      -2.253   1.176   0.101  0.00  0.00    +0.286 C 
BRANCH  23  27
ATOM     24  C1  T17     1      -6.517   1.507  -0.080  0.00  0.00    +0.020 A 
ATOM     25  C2  T17     1      -5.978   0.370   0.542  0.00  0.00    +0.003 A 
ATOM     26  C3  T17     1      -4.581   0.241   0.610  0.00  0.00    +0.027 A 
ATOM     27  C4  T17     1      -3.773   1.251   0.049  0.00  0.00    +0.079 A 
ATOM     28  N6  T17     1      -4.296   2.347  -0.543  0.00  0.00    -0.256 NA
ATOM     29  C22 T17     1      -5.637   2.469  -0.606  0.00  0.00    +0.111 A 
ENDBRANCH  23  27
ENDBRANCH  22  23
ENDBRANCH   1  22
TORSDOF 4
