REMARK  Name = ligands_pdb/TRN_CHEMBL179474.pdb
REMARK  5 active torsions:
REMARK  status: ('A' for Active; 'I' for Inactive)
REMARK    1  A    between atoms: C1_1  and  C2_2
REMARK    2  A    between atoms: C6_7  and  C7_8
REMARK    3  A    between atoms: C7_8  and  O1_9
REMARK    4  A    between atoms: O1_9  and  C8_10
REMARK    5  A    between atoms: C9_13  and  C10_14
REMARK                            x       y       z     vdW  Elec       q    Type
REMARK                         _______ _______ _______ _____ _____    ______ ____
ROOT
ATOM      1  C8  T09     1       0.274  -0.519  -0.083  0.00  0.00    +0.237 A 
ATOM      2  N2  T09     1      -0.537   0.568  -0.081  0.00  0.00    -0.125 NA
ATOM      3  N3  T09     1      -1.873   0.353   0.005  0.00  0.00    -0.189 N 
ATOM      4  C9  T09     1      -2.973   1.172   0.005  0.00  0.00    +0.185 A 
ATOM      5  N4  T09     1      -4.146   0.432   0.052  0.00  0.00    -0.127 NA
ATOM      6  N5  T09     1      -3.835  -0.846   0.088  0.00  0.00    -0.127 NA
ATOM      7  C16 T09     1      -2.485  -0.863   0.056  0.00  0.00    +0.182 A 
ATOM      8  C17 T09     1      -1.661  -2.000   0.057  0.00  0.00    +0.010 A 
ATOM      9  C18 T09     1      -0.267  -1.822  -0.009  0.00  0.00    +0.026 A 
ATOM     10  C19 T09     1       0.522  -3.131  -0.006  0.00  0.00    +0.025 C 
ATOM     11  C20 T09     1       0.019  -3.965  -1.220  0.00  0.00    +0.009 C 
ATOM     12  C21 T09     1      -1.531  -4.157  -1.149  0.00  0.00    +0.009 C 
ATOM     13  C22 T09     1      -2.110  -3.458   0.114  0.00  0.00    +0.023 C 
ATOM     14  C23 T09     1      -1.425  -4.090   1.360  0.00  0.00    +0.009 C 
ATOM     15  C24 T09     1       0.125  -3.896   1.290  0.00  0.00    +0.009 C 
ENDROOT
BRANCH   4  16
ATOM     16  C10 T09     1      -2.980   2.640  -0.048  0.00  0.00    +0.021 A 
ATOM     17  C11 T09     1      -4.059   3.320  -0.648  0.00  0.00    +0.011 A 
ATOM     18  C12 T09     1      -4.080   4.724  -0.703  0.00  0.00    +0.001 A 
ATOM     19  C13 T09     1      -3.022   5.464  -0.153  0.00  0.00    +0.000 A 
ATOM     20  C14 T09     1      -1.947   4.799   0.455  0.00  0.00    +0.001 A 
ATOM     21  C15 T09     1      -1.927   3.395   0.508  0.00  0.00    +0.011 A 
ENDBRANCH   4  16
BRANCH   1  22
ATOM     22  O1  T09     1       1.642  -0.376  -0.152  0.00  0.00    -0.469 OA
BRANCH  22  23
ATOM     23  C7  T09     1       2.270   0.916  -0.260  0.00  0.00    +0.286 C 
BRANCH  23  30
ATOM     24  C1  T09     1       3.788  -0.004   2.198  0.00  0.00    +0.046 C 
ATOM     25  C2  T09     1       4.494   0.317   0.886  0.00  0.00    -0.026 A 
ATOM     26  C3  T09     1       5.892   0.185   0.793  0.00  0.00    +0.007 A 
ATOM     27  C4  T09     1       6.525   0.484  -0.423  0.00  0.00    +0.020 A 
ATOM     28  C5  T09     1       5.739   0.906  -1.507  0.00  0.00    +0.111 A 
ATOM     29  N1  T09     1       4.400   1.035  -1.429  0.00  0.00    -0.256 NA
ATOM     30  C6  T09     1       3.784   0.745  -0.262  0.00  0.00    +0.081 A 
ENDBRANCH  23  30
ENDBRANCH  22  23
ENDBRANCH   1  22
TORSDOF 4
