REMARK  Name = ligands_pdb/TRN_CHEMBL305068.pdb
REMARK  6 active torsions:
REMARK  status: ('A' for Active; 'I' for Inactive)
REMARK    1  A    between atoms: C1_1  and  C2_2
REMARK    2  A    between atoms: C6_6  and  C7_7
REMARK    3  A    between atoms: C7_7  and  O1_8
REMARK    4  A    between atoms: O1_8  and  C8_9
REMARK    5  A    between atoms: C9_12  and  C10_13
REMARK    6  A    between atoms: C11_15  and  C12_16
REMARK                            x       y       z     vdW  Elec       q    Type
REMARK                         _______ _______ _______ _____ _____    ______ ____
ROOT
ATOM      1  C8  T12     1       0.107  -0.776   0.000  0.00  0.00    +0.237 A 
ATOM      2  N1  T12     1      -0.557   0.406  -0.001  0.00  0.00    -0.125 NA
ATOM      3  N2  T12     1      -1.912   0.364   0.001  0.00  0.00    -0.185 N 
ATOM      4  C9  T12     1      -2.904   1.312   0.000  0.00  0.00    +0.243 A 
ATOM      5  N5  T12     1      -4.165   0.734   0.004  0.00  0.00    -0.122 NA
ATOM      6  N6  T12     1      -4.016  -0.573   0.007  0.00  0.00    -0.127 NA
ATOM      7  C13 T12     1      -2.678  -0.763   0.005  0.00  0.00    +0.182 A 
ATOM      8  C14 T12     1      -2.008  -1.997   0.006  0.00  0.00    +0.010 A 
ATOM      9  C15 T12     1      -0.600  -2.000   0.004  0.00  0.00    +0.026 A 
ATOM     10  C16 T12     1       0.012  -3.400   0.006  0.00  0.00    +0.025 C 
ATOM     11  C17 T12     1      -0.540  -4.138  -1.248  0.00  0.00    +0.009 C 
ATOM     12  C18 T12     1      -2.104  -4.130  -1.245  0.00  0.00    +0.009 C 
ATOM     13  C19 T12     1      -2.642  -3.385   0.010  0.00  0.00    +0.023 C 
ATOM     14  C20 T12     1      -2.100  -4.124   1.267  0.00  0.00    +0.009 C 
ATOM     15  C21 T12     1      -0.536  -4.133   1.265  0.00  0.00    +0.009 C 
ENDROOT
BRANCH   4  16
ATOM     16  C10 T12     1      -2.655   2.731  -0.003  0.00  0.00    +0.298 A 
ATOM     17  N3  T12     1      -3.648   3.679  -0.003  0.00  0.00    -0.189 NA
ATOM     18  C11 T12     1      -2.894   4.759  -0.008  0.00  0.00    +0.169 A 
ATOM     19  C12 T12     1      -3.549   6.114  -0.006  0.00  0.00    +0.091 C 
ATOM     20  N4  T12     1      -1.613   4.604  -0.010  0.00  0.00    -0.061 NA
ATOM     21  O2  T12     1      -1.381   3.222  -0.008  0.00  0.00    -0.329 OA
ENDBRANCH   4  16
BRANCH   1  22
ATOM     22  O1  T12     1       1.485  -0.809  -0.001  0.00  0.00    -0.469 OA
BRANCH  22  23
ATOM     23  C7  T12     1       2.276   0.399  -0.010  0.00  0.00    +0.286 C 
BRANCH  23  29
ATOM     24  C1  T12     1       6.766   2.251   0.003  0.00  0.00    +0.065 C 
ATOM     25  C2  T12     1       5.915   0.993   0.002  0.00  0.00    +0.039 A 
ATOM     26  C3  T12     1       6.504  -0.285  -0.005  0.00  0.00    +0.023 A 
ATOM     27  C4  T12     1       5.671  -1.414  -0.012  0.00  0.00    +0.004 A 
ATOM     28  C5  T12     1       4.280  -1.225  -0.013  0.00  0.00    +0.027 A 
ATOM     29  C6  T12     1       3.770   0.091  -0.008  0.00  0.00    +0.079 A 
ATOM     30  N7  T12     1       4.578   1.173  -0.002  0.00  0.00    -0.253 NA
ENDBRANCH  23  29
ENDBRANCH  22  23
ENDBRANCH   1  22
TORSDOF 4
