REMARK  Name = ligands_pdb/TRN_CHEMBL360733.pdb
REMARK  5 active torsions:
REMARK  status: ('A' for Active; 'I' for Inactive)
REMARK    1  A    between atoms: C1_1  and  C2_2
REMARK    2  A    between atoms: C5_6  and  C6_7
REMARK    3  A    between atoms: C6_7  and  O1_8
REMARK    4  A    between atoms: O1_8  and  C7_9
REMARK    5  A    between atoms: C8_12  and  C9_13
REMARK                            x       y       z     vdW  Elec       q    Type
REMARK                         _______ _______ _______ _____ _____    ______ ____
ROOT
ATOM      1  C7  T15     1       0.254  -0.474   0.130  0.00  0.00    +0.237 A 
ATOM      2  N2  T15     1      -0.741   0.448   0.080  0.00  0.00    -0.125 NA
ATOM      3  N3  T15     1      -2.022   0.001   0.055  0.00  0.00    -0.189 N 
ATOM      4  C8  T15     1      -3.240   0.642  -0.028  0.00  0.00    +0.185 A 
ATOM      5  N4  T15     1      -4.190  -0.300  -0.096  0.00  0.00    -0.127 NA
ATOM      6  N5  T15     1      -3.664  -1.452  -0.043  0.00  0.00    -0.127 NA
ATOM      7  C15 T15     1      -2.379  -1.309   0.044  0.00  0.00    +0.182 A 
ATOM      8  C16 T15     1      -1.377  -2.288   0.087  0.00  0.00    +0.010 A 
ATOM      9  C17 T15     1      -0.040  -1.858   0.139  0.00  0.00    +0.026 A 
ATOM     10  C18 T15     1       0.971  -3.003   0.176  0.00  0.00    +0.025 C 
ATOM     11  C19 T15     1       0.722  -3.868  -1.093  0.00  0.00    +0.009 C 
ATOM     12  C20 T15     1      -0.769  -4.338  -1.155  0.00  0.00    +0.009 C 
ATOM     13  C21 T15     1      -1.560  -3.802   0.073  0.00  0.00    +0.023 C 
ATOM     14  C22 T15     1      -0.868  -4.348   1.356  0.00  0.00    +0.009 C 
ATOM     15  C23 T15     1       0.622  -3.876   1.417  0.00  0.00    +0.009 C 
ENDROOT
BRANCH   4  16
ATOM     16  C9  T15     1      -3.490   2.088  -0.066  0.00  0.00    +0.021 A 
ATOM     17  C10 T15     1      -4.641   2.586  -0.711  0.00  0.00    +0.011 A 
ATOM     18  C11 T15     1      -4.899   3.966  -0.751  0.00  0.00    +0.001 A 
ATOM     19  C12 T15     1      -4.012   4.866  -0.140  0.00  0.00    +0.000 A 
ATOM     20  C13 T15     1      -2.869   4.381   0.514  0.00  0.00    +0.001 A 
ATOM     21  C14 T15     1      -2.610   3.001   0.553  0.00  0.00    +0.011 A 
ENDBRANCH   4  16
BRANCH   1  22
ATOM     22  O1  T15     1       1.574  -0.083   0.169  0.00  0.00    -0.469 OA
BRANCH  22  23
ATOM     23  C6  T15     1       1.967   1.294  -0.004  0.00  0.00    +0.286 C 
BRANCH  23  29
ATOM     24  C1  T15     1       6.705  -0.435  -0.809  0.00  0.00    +0.044 C 
ATOM     25  C2  T15     1       5.735   0.610  -0.283  0.00  0.00    -0.047 A 
ATOM     26  C3  T15     1       6.203   1.773   0.352  0.00  0.00    +0.023 A 
ATOM     27  C4  T15     1       5.271   2.710   0.828  0.00  0.00    +0.111 A 
ATOM     28  N1  T15     1       3.939   2.543   0.709  0.00  0.00    -0.256 NA
ATOM     29  C5  T15     1       3.480   1.424   0.107  0.00  0.00    +0.079 A 
ATOM     30  C24 T15     1       4.345   0.438  -0.408  0.00  0.00    +0.030 A 
ENDBRANCH  23  29
ENDBRANCH  22  23
ENDBRANCH   1  22
TORSDOF 4
