REMARK  Name = ligands_pdb/TRN_CHEMBL123530.pdb
REMARK  6 active torsions:
REMARK  status: ('A' for Active; 'I' for Inactive)
REMARK    1  A    between atoms: C1_1  and  C2_2
REMARK    2  A    between atoms: C6_6  and  C7_7
REMARK    3  A    between atoms: C7_7  and  O1_8
REMARK    4  A    between atoms: O1_8  and  C8_9
REMARK    5  A    between atoms: C9_12  and  C10_13
REMARK    6  A    between atoms: C12_16  and  C13_17
REMARK                            x       y       z     vdW  Elec       q    Type
REMARK                         _______ _______ _______ _____ _____    ______ ____
ROOT
ATOM      1  C8  T05     1      -0.214   0.767  -0.002  0.00  0.00    +0.237 A 
ATOM      2  N1  T05     1      -0.414  -0.576   0.000  0.00  0.00    -0.125 NA
ATOM      3  N2  T05     1      -1.696  -1.019   0.000  0.00  0.00    -0.187 N 
ATOM      4  C9  T05     1      -2.269  -2.264   0.002  0.00  0.00    +0.207 A 
ATOM      5  N4  T05     1      -3.601  -2.158   0.002  0.00  0.00    -0.125 NA
ATOM      6  N5  T05     1      -3.897  -0.924   0.000  0.00  0.00    -0.127 NA
ATOM      7  C14 T05     1      -2.799  -0.226  -0.001  0.00  0.00    +0.182 A 
ATOM      8  C15 T05     1      -2.625   1.165  -0.003  0.00  0.00    +0.010 A 
ATOM      9  C16 T05     1      -1.310   1.663  -0.003  0.00  0.00    +0.026 A 
ATOM     10  C17 T05     1      -1.235   3.190  -0.005  0.00  0.00    +0.025 C 
ATOM     11  C18 T05     1      -2.011   3.683   1.250  0.00  0.00    +0.009 C 
ATOM     12  C19 T05     1      -3.470   3.121   1.251  0.00  0.00    +0.009 C 
ATOM     13  C20 T05     1      -3.713   2.233  -0.004  0.00  0.00    +0.023 C 
ATOM     14  C21 T05     1      -3.471   3.117  -1.261  0.00  0.00    +0.009 C 
ATOM     15  C22 T05     1      -2.011   3.680  -1.262  0.00  0.00    +0.009 C 
ENDROOT
BRANCH   4  16
ATOM     16  C10 T05     1      -1.601  -3.539   0.003  0.00  0.00    +0.148 A 
ATOM     17  C11 T05     1      -2.323  -4.701   0.004  0.00  0.00    +0.228 A 
ATOM     18  O2  T05     1      -1.424  -5.710   0.005  0.00  0.00    -0.447 OA
ATOM     19  C12 T05     1      -0.225  -5.056   0.004  0.00  0.00    +0.193 A 
ATOM     20  C13 T05     1       1.038  -5.870   0.005  0.00  0.00    +0.109 C 
ATOM     21  N3  T05     1      -0.324  -3.761   0.003  0.00  0.00    -0.210 NA
ENDBRANCH   4  16
BRANCH   1  22
ATOM     22  O1  T05     1       1.062   1.286  -0.003  0.00  0.00    -0.469 OA
BRANCH  22  23
ATOM     23  C7  T05     1       2.230   0.438   0.004  0.00  0.00    +0.286 C 
BRANCH  23  29
ATOM     24  C1  T05     1       7.086   0.297  -0.007  0.00  0.00    +0.065 C 
ATOM     25  C2  T05     1       5.843   1.172  -0.007  0.00  0.00    +0.039 A 
ATOM     26  C3  T05     1       5.942   2.576  -0.001  0.00  0.00    +0.023 A 
ATOM     27  C4  T05     1       4.762   3.337   0.004  0.00  0.00    +0.004 A 
ATOM     28  C5  T05     1       3.529   2.667   0.005  0.00  0.00    +0.027 A 
ATOM     29  C6  T05     1       3.518   1.255   0.002  0.00  0.00    +0.079 A 
ATOM     30  N6  T05     1       4.657   0.530  -0.003  0.00  0.00    -0.253 NA
ENDBRANCH  23  29
ENDBRANCH  22  23
ENDBRANCH   1  22
TORSDOF 4
