REMARK  Name = ligands_pdb/TRN_CHEMBL17574.pdb
REMARK  5 active torsions:
REMARK  status: ('A' for Active; 'I' for Inactive)
REMARK    1  A    between atoms: C1_1  and  S1_2
REMARK    2  A    between atoms: S1_2  and  C2_3
REMARK    3  A    between atoms: C3_5  and  C4_6
REMARK    4  A    between atoms: C13_17  and  C14_18
REMARK    5  A    between atoms: C13_17  and  C15_19
REMARK                            x       y       z     vdW  Elec       q    Type
REMARK                         _______ _______ _______ _____ _____    ______ ____
ROOT
ATOM      1  C2  T07     1       1.565   1.138   0.472  0.00  0.00    +0.056 A 
ATOM      2  S2  T07     1       0.141   2.159   0.408  0.00  0.00    -0.081 S 
ATOM      3  C3  T07     1      -0.805   0.673   0.341  0.00  0.00    +0.026 A 
ATOM      4  C9  T07     1      -0.030  -0.474   0.327  0.00  0.00    -0.020 A 
ATOM      5  C10 T07     1       1.303  -0.200   0.415  0.00  0.00    +0.042 A 
ATOM      6  C11 T07     1       2.266  -1.251   0.418  0.00  0.00    +0.166 C 
ATOM      7  O1  T07     1       3.463  -1.023   0.390  0.00  0.00    -0.292 OA
ATOM      8  C12 T07     1       1.743  -2.696   0.433  0.00  0.00    +0.086 C 
ATOM      9  C13 T07     1       0.416  -2.874  -0.353  0.00  0.00    -0.024 C 
ATOM     10  C14 T07     1       0.650  -2.630  -1.870  0.00  0.00    +0.011 C 
ATOM     11  C15 T07     1      -0.113  -4.318  -0.161  0.00  0.00    +0.011 C 
ATOM     12  C16 T07     1      -0.621  -1.862   0.203  0.00  0.00    +0.043 C 
ENDROOT
BRANCH   3  13
ATOM     13  C4  T07     1      -2.264   0.623   0.240  0.00  0.00    +0.007 A 
ATOM     14  C5  T07     1      -3.048  -0.050   1.195  0.00  0.00    +0.012 A 
ATOM     15  C6  T07     1      -4.445  -0.044   1.049  0.00  0.00    +0.020 A 
ATOM     16  C7  T07     1      -5.008   0.641  -0.041  0.00  0.00    +0.111 A 
ATOM     17  N1  T07     1      -4.264   1.301  -0.951  0.00  0.00    -0.263 NA
ATOM     18  C8  T07     1      -2.923   1.295  -0.807  0.00  0.00    +0.119 A 
ENDBRANCH   3  13
BRANCH   1  20
ATOM     19  C1  T07     1       2.897   3.541  -0.280  0.00  0.00    +0.090 C 
ATOM     20  S1  T07     1       3.142   1.933   0.586  0.00  0.00    -0.121 S 
ENDBRANCH   1  20
TORSDOF 2
