REMARK  Name = ligands_pdb/TRN_CHEMBL120838.pdb
REMARK  6 active torsions:
REMARK  status: ('A' for Active; 'I' for Inactive)
REMARK    1  A    between atoms: C1_1  and  C2_2
REMARK    2  A    between atoms: C3_5  and  C4_6
REMARK    3  A    between atoms: C8_12  and  O2_13
REMARK    4  A    between atoms: O2_13  and  C9_14
REMARK    5  A    between atoms: C9_14  and  C10_15
REMARK    6  A    between atoms: C15_20  and  C16_21
REMARK                            x       y       z     vdW  Elec       q    Type
REMARK                         _______ _______ _______ _____ _____    ______ ____
ROOT
ATOM      1  C4  T01     1      -2.698   1.485   0.004  0.00  0.00    +0.243 A 
ATOM      2  N2  T01     1      -3.959   1.069   0.006  0.00  0.00    -0.122 NA
ATOM      3  N3  T01     1      -3.939  -0.307   0.006  0.00  0.00    -0.127 NA
ATOM      4  C5  T01     1      -2.662  -0.629   0.004  0.00  0.00    +0.182 A 
ATOM      5  C6  T01     1      -2.136  -1.950   0.003  0.00  0.00    +0.010 A 
ATOM      6  C7  T01     1      -0.762  -2.024   0.000  0.00  0.00    +0.026 A 
ATOM      7  C8  T01     1       0.025  -0.873  -0.001  0.00  0.00    +0.237 A 
ATOM      8  N5  T01     1      -0.438   0.391   0.000  0.00  0.00    -0.125 NA
ATOM      9  N6  T01     1      -1.808   0.434   0.002  0.00  0.00    -0.185 N 
ATOM     10  C17 T01     1      -0.256  -3.455   0.000  0.00  0.00    +0.025 C 
ATOM     11  C18 T01     1      -0.861  -4.153  -1.256  0.00  0.00    +0.009 C 
ATOM     12  C19 T01     1      -2.421  -4.035  -1.252  0.00  0.00    +0.009 C 
ATOM     13  C20 T01     1      -2.901  -3.251   0.004  0.00  0.00    +0.023 C 
ATOM     14  C21 T01     1      -2.417  -4.035   1.258  0.00  0.00    +0.009 C 
ATOM     15  C22 T01     1      -0.857  -4.153   1.257  0.00  0.00    +0.009 C 
ENDROOT
BRANCH   1  20
ATOM     16  C1  T01     1      -3.108   6.328  -0.001  0.00  0.00    +0.091 C 
ATOM     17  C2  T01     1      -2.540   4.936   0.002  0.00  0.00    +0.169 A 
ATOM     18  N1  T01     1      -1.230   4.719  -0.003  0.00  0.00    -0.061 NA
ATOM     19  O1  T01     1      -1.099   3.318  -0.002  0.00  0.00    -0.329 OA
ATOM     20  C3  T01     1      -2.385   2.892   0.002  0.00  0.00    +0.298 A 
ATOM     21  N7  T01     1      -3.241   3.850   0.004  0.00  0.00    -0.189 NA
ENDBRANCH   1  20
BRANCH   7  22
ATOM     22  O2  T01     1       1.390  -1.031  -0.002  0.00  0.00    -0.470 OA
BRANCH  22  23
ATOM     23  C9  T01     1       2.309   0.084  -0.001  0.00  0.00    +0.267 C 
BRANCH  23  24
ATOM     24  C10 T01     1       3.770  -0.380  -0.002  0.00  0.00    +0.007 A 
ATOM     25  C11 T01     1       4.102  -1.753   0.000  0.00  0.00    +0.008 A 
ATOM     26  C12 T01     1       5.443  -2.168  -0.001  0.00  0.00    +0.000 A 
ATOM     27  C13 T01     1       6.473  -1.217  -0.002  0.00  0.00    +0.001 A 
ATOM     28  C14 T01     1       6.159   0.150  -0.003  0.00  0.00    +0.019 A 
ATOM     29  C15 T01     1       4.817   0.573  -0.003  0.00  0.00    +0.058 A 
BRANCH  29  30
ATOM     30  C16 T01     1       4.543   1.984  -0.004  0.00  0.00    +0.100 C 
ATOM     31  N4  T01     1       4.312   3.117  -0.005  0.00  0.00    -0.191 NA
ENDBRANCH  29  30
ENDBRANCH  23  24
ENDBRANCH  22  23
ENDBRANCH   7  22
TORSDOF 5
