REMARK  Name = ligands_pdb/TRN_CHEMBL121277.pdb
REMARK  5 active torsions:
REMARK  status: ('A' for Active; 'I' for Inactive)
REMARK    1  A    between atoms: C1_1  and  C2_2
REMARK    2  A    between atoms: C3_5  and  C4_6
REMARK    3  A    between atoms: C8_12  and  O2_13
REMARK    4  A    between atoms: O2_13  and  C9_14
REMARK    5  A    between atoms: C9_14  and  C10_15
REMARK                            x       y       z     vdW  Elec       q    Type
REMARK                         _______ _______ _______ _____ _____    ______ ____
ROOT
ATOM      1  C4  T02     1       2.960  -0.129  -0.011  0.00  0.00    +0.243 A 
ATOM      2  N2  T02     1       3.713  -1.223  -0.024  0.00  0.00    -0.122 NA
ATOM      3  N3  T02     1       2.866  -2.308  -0.025  0.00  0.00    -0.127 NA
ATOM      4  C5  T02     1       1.654  -1.793  -0.013  0.00  0.00    +0.182 A 
ATOM      5  C6  T02     1       0.437  -2.527  -0.008  0.00  0.00    +0.010 A 
ATOM      6  C7  T02     1      -0.702  -1.756   0.005  0.00  0.00    +0.026 A 
ATOM      7  C8  T02     1      -0.634  -0.364   0.014  0.00  0.00    +0.237 A 
ATOM      8  N5  T02     1       0.498   0.365   0.010  0.00  0.00    -0.125 NA
ATOM      9  N6  T02     1       1.616  -0.429  -0.003  0.00  0.00    -0.185 N 
ATOM     10  C15 T02     1      -1.970  -2.590   0.009  0.00  0.00    +0.025 C 
ATOM     11  C16 T02     1      -1.904  -3.519   1.258  0.00  0.00    +0.009 C 
ATOM     12  C17 T02     1      -0.589  -4.368   1.242  0.00  0.00    +0.009 C 
ATOM     13  C18 T02     1       0.260  -4.026  -0.017  0.00  0.00    +0.023 C 
ATOM     14  C19 T02     1      -0.607  -4.351  -1.268  0.00  0.00    +0.009 C 
ATOM     15  C20 T02     1      -1.921  -3.502  -1.254  0.00  0.00    +0.009 C 
ENDROOT
BRANCH   1  20
ATOM     16  C1  T02     1       6.216   3.479  -0.004  0.00  0.00    +0.091 C 
ATOM     17  C2  T02     1       4.921   2.714  -0.005  0.00  0.00    +0.169 A 
ATOM     18  N1  T02     1       3.747   3.333   0.012  0.00  0.00    -0.061 NA
ATOM     19  O1  T02     1       2.795   2.297   0.011  0.00  0.00    -0.329 OA
ATOM     20  C3  T02     1       3.562   1.180  -0.005  0.00  0.00    +0.298 A 
ATOM     21  N7  T02     1       4.823   1.425  -0.013  0.00  0.00    -0.189 NA
ENDBRANCH   1  20
BRANCH   7  22
ATOM     22  O2  T02     1      -1.817   0.335   0.027  0.00  0.00    -0.470 OA
BRANCH  22  23
ATOM     23  C9  T02     1      -1.878   1.776   0.025  0.00  0.00    +0.267 C 
BRANCH  23  24
ATOM     24  C10 T02     1      -3.336   2.199   0.037  0.00  0.00    +0.008 A 
ATOM     25  C11 T02     1      -3.992   2.503   1.243  0.00  0.00    +0.010 A 
ATOM     26  C12 T02     1      -5.342   2.885   1.199  0.00  0.00    +0.020 A 
ATOM     27  C13 T02     1      -5.988   2.948  -0.048  0.00  0.00    +0.111 A 
ATOM     28  N4  T02     1      -5.366   2.654  -1.208  0.00  0.00    -0.263 NA
ATOM     29  C14 T02     1      -4.069   2.286  -1.162  0.00  0.00    +0.117 A 
ENDBRANCH  23  24
ENDBRANCH  22  23
ENDBRANCH   7  22
TORSDOF 4
