REMARK  Name = ligands_pdb/TRN_CHEMBL122619.pdb
REMARK  7 active torsions:
REMARK  status: ('A' for Active; 'I' for Inactive)
REMARK    1  A    between atoms: C1_1  and  C2_2
REMARK    2  A    between atoms: C3_5  and  C4_6
REMARK    3  A    between atoms: C8_12  and  O2_13
REMARK    4  A    between atoms: O2_13  and  C9_14
REMARK    5  A    between atoms: C9_14  and  C10_15
REMARK    6  A    between atoms: C13_18  and  C14_19
REMARK    7  A    between atoms: C15_20  and  C16_21
REMARK                            x       y       z     vdW  Elec       q    Type
REMARK                         _______ _______ _______ _____ _____    ______ ____
ROOT
ATOM      1  C4  T04     1      -3.176   1.388   0.028  0.00  0.00    +0.243 A 
ATOM      2  N2  T04     1      -4.372   0.805  -0.021  0.00  0.00    -0.122 NA
ATOM      3  N3  T04     1      -4.212  -0.560  -0.071  0.00  0.00    -0.127 NA
ATOM      4  C5  T04     1      -2.912  -0.737  -0.049  0.00  0.00    +0.182 A 
ATOM      5  C6  T04     1      -2.246  -1.991  -0.087  0.00  0.00    +0.010 A 
ATOM      6  C7  T04     1      -0.874  -1.917  -0.055  0.00  0.00    +0.026 A 
ATOM      7  C8  T04     1      -0.219  -0.690   0.014  0.00  0.00    +0.237 A 
ATOM      8  N5  T04     1      -0.818   0.515   0.051  0.00  0.00    -0.125 NA
ATOM      9  N6  T04     1      -2.187   0.417   0.014  0.00  0.00    -0.185 N 
ATOM     10  C17 T04     1      -0.214  -3.283  -0.095  0.00  0.00    +0.025 C 
ATOM     11  C18 T04     1      -0.709  -3.993  -1.391  0.00  0.00    +0.009 C 
ATOM     12  C19 T04     1      -2.273  -4.044  -1.426  0.00  0.00    +0.009 C 
ATOM     13  C20 T04     1      -2.864  -3.367  -0.155  0.00  0.00    +0.023 C 
ATOM     14  C21 T04     1      -2.327  -4.143   1.082  0.00  0.00    +0.009 C 
ATOM     15  C22 T04     1      -0.763  -4.092   1.118  0.00  0.00    +0.009 C 
ENDROOT
BRANCH   1  20
ATOM     16  C1  T04     1      -3.873   6.168   0.178  0.00  0.00    +0.091 C 
ATOM     17  C2  T04     1      -3.237   4.806   0.152  0.00  0.00    +0.169 A 
ATOM     18  N1  T04     1      -1.868   4.655   0.178  0.00  0.00    -0.061 NA
ATOM     19  O1  T04     1      -1.767   3.266   0.131  0.00  0.00    -0.329 OA
ATOM     20  C3  T04     1      -3.013   2.749   0.083  0.00  0.00    +0.298 A 
ATOM     21  N7  T04     1      -3.940   3.682   0.094  0.00  0.00    -0.189 NA
ENDBRANCH   1  20
BRANCH   7  22
ATOM     22  O2  T04     1       1.155  -0.697   0.045  0.00  0.00    -0.469 OA
BRANCH  22  23
ATOM     23  C9  T04     1       1.941   0.500   0.244  0.00  0.00    +0.286 C 
BRANCH  23  24
ATOM     24  C10 T04     1       3.426   0.163   0.238  0.00  0.00    +0.079 A 
ATOM     25  C11 T04     1       3.913  -1.050   0.761  0.00  0.00    +0.027 A 
ATOM     26  C12 T04     1       5.295  -1.293   0.737  0.00  0.00    +0.007 A 
ATOM     27  C13 T04     1       6.151  -0.315   0.200  0.00  0.00    -0.029 A 
ATOM     28  C14 T04     1       7.655  -0.556   0.164  0.00  0.00    +0.045 C 
ATOM     29  C15 T04     1       5.576   0.878  -0.294  0.00  0.00    +0.042 A 
ATOM     30  C16 T04     1       6.426   1.997  -0.883  0.00  0.00    +0.066 C 
ATOM     31  N4  T04     1       4.246   1.105  -0.271  0.00  0.00    -0.253 NA
ENDBRANCH  23  24
ENDBRANCH  22  23
ENDBRANCH   7  22
TORSDOF 4
