REMARK  Name = ligands_pdb/TRN_CHEMBL291335.pdb
REMARK  8 active torsions:
REMARK  status: ('A' for Active; 'I' for Inactive)
REMARK    1  A    between atoms: C1_1  and  O1_2
REMARK    2  A    between atoms: O1_2  and  C2_3
REMARK    3  A    between atoms: C2_3  and  C3_5
REMARK    4  A    between atoms: C5_7  and  C6_8
REMARK    5  A    between atoms: C9_11  and  O3_12
REMARK    6  A    between atoms: O3_12  and  C10_13
REMARK    7  A    between atoms: C13_16  and  C14_17
REMARK    8  A    between atoms: N2_23  and  C19_24
REMARK                            x       y       z     vdW  Elec       q    Type
REMARK                         _______ _______ _______ _____ _____    ______ ____
ROOT
ATOM      1  C3  T11     1       2.741  -0.564   0.011  0.00  0.00    +0.124 A 
ATOM      2  C4  T11     1       1.452  -1.086   0.024  0.00  0.00    +0.031 A 
ATOM      3  C5  T11     1       0.370  -0.241  -0.030  0.00  0.00    +0.007 A 
ATOM      4  C13 T11     1       0.521   1.129  -0.115  0.00  0.00    +0.061 A 
ATOM      5  N2  T11     1       1.791   1.703  -0.154  0.00  0.00    -0.310 N 
ATOM      6  C19 T11     1       1.915   3.174  -0.288  0.00  0.00    +0.152 C 
ATOM      7  C20 T11     1       2.954   0.921  -0.073  0.00  0.00    +0.266 A 
ATOM      8  O4  T11     1       4.053   1.453  -0.072  0.00  0.00    -0.267 OA
ENDROOT
BRANCH   3   9
ATOM      9  C6  T11     1      -0.960  -0.856   0.016  0.00  0.00    -0.016 A 
ATOM     10  C7  T11     1      -1.415  -1.634  -1.064  0.00  0.00    +0.012 A 
ATOM     11  C8  T11     1      -2.690  -2.221  -1.028  0.00  0.00    +0.046 A 
ATOM     12  C9  T11     1      -3.522  -2.042   0.089  0.00  0.00    +0.120 A 
ATOM     13  C11 T11     1      -3.067  -1.271   1.177  0.00  0.00    +0.046 A 
ATOM     14  C12 T11     1      -1.790  -0.686   1.140  0.00  0.00    +0.012 A 
BRANCH  12  15
ATOM     15  O3  T11     1      -4.765  -2.642   0.068  0.00  0.00    -0.495 OA
ATOM     16  C10 T11     1      -5.727  -2.500   1.128  0.00  0.00    +0.277 C 
ENDBRANCH  12  15
ENDBRANCH   3   9
BRANCH   4  17
ATOM     17  C14 T11     1      -0.695   1.950  -0.176  0.00  0.00    +0.017 A 
ATOM     18  C15 T11     1      -1.092   2.734   0.922  0.00  0.00    +0.013 A 
ATOM     19  C16 T11     1      -2.266   3.496   0.819  0.00  0.00    +0.020 A 
ATOM     20  C17 T11     1      -3.000   3.450  -0.379  0.00  0.00    +0.111 A 
ATOM     21  N1  T11     1      -2.623   2.705  -1.437  0.00  0.00    -0.263 NA
ATOM     22  C18 T11     1      -1.495   1.973  -1.336  0.00  0.00    +0.120 A 
ENDBRANCH   4  17
BRANCH   1  23
ATOM     23  C2  T11     1       3.773  -1.482   0.081  0.00  0.00    +0.344 C 
ATOM     24  O2  T11     1       3.598  -2.698   0.151  0.00  0.00    -0.245 OA
BRANCH  23  26
ATOM     25  C1  T11     1       6.178  -1.898   0.135  0.00  0.00    +0.280 C 
ATOM     26  O1  T11     1       5.056  -0.997   0.069  0.00  0.00    -0.464 OA
ENDBRANCH  23  26
ENDBRANCH   1  23
TORSDOF 5
