REMARK  Name = ligands_pdb/TRN_CHEMBL332893.pdb
REMARK  7 active torsions:
REMARK  status: ('A' for Active; 'I' for Inactive)
REMARK    1  A    between atoms: C1_1  and  C2_2
REMARK    2  A    between atoms: C2_2  and  C3_3
REMARK    3  A    between atoms: C4_6  and  C5_7
REMARK    4  A    between atoms: C9_13  and  O2_14
REMARK    5  A    between atoms: O2_14  and  C10_15
REMARK    6  A    between atoms: C10_15  and  C11_16
REMARK    7  A    between atoms: C15_20  and  C16_21
REMARK                            x       y       z     vdW  Elec       q    Type
REMARK                         _______ _______ _______ _____ _____    ______ ____
ROOT
ATOM      1  C5  T13     1       2.818   0.896   0.112  0.00  0.00    +0.243 A 
ATOM      2  N2  T13     1       3.415   2.150   0.098  0.00  0.00    -0.122 NA
ATOM      3  N3  T13     1       2.473   3.067   0.049  0.00  0.00    -0.127 NA
ATOM      4  C6  T13     1       1.321   2.363   0.034  0.00  0.00    +0.182 A 
ATOM      5  C7  T13     1       0.019   2.887  -0.015  0.00  0.00    +0.010 A 
ATOM      6  C8  T13     1      -1.068   1.994  -0.024  0.00  0.00    +0.026 A 
ATOM      7  C9  T13     1      -0.835   0.601   0.016  0.00  0.00    +0.237 A 
ATOM      8  N5  T13     1       0.429   0.113   0.064  0.00  0.00    -0.125 NA
ATOM      9  N6  T13     1       1.449   1.007   0.071  0.00  0.00    -0.185 N 
ATOM     10  C17 T13     1      -2.430   2.684  -0.079  0.00  0.00    +0.025 C 
ATOM     11  C18 T13     1      -2.438   3.570  -1.358  0.00  0.00    +0.009 C 
ATOM     12  C19 T13     1      -1.227   4.559  -1.348  0.00  0.00    +0.009 C 
ATOM     13  C20 T13     1      -0.373   4.362  -0.062  0.00  0.00    +0.023 C 
ATOM     14  C21 T13     1      -1.298   4.620   1.163  0.00  0.00    +0.009 C 
ATOM     15  C22 T13     1      -2.509   3.631   1.153  0.00  0.00    +0.009 C 
ENDROOT
BRANCH   1  19
ATOM     16  C3  T13     1       5.028  -1.711   0.238  0.00  0.00    +0.172 A 
ATOM     17  N1  T13     1       3.872  -2.461   0.225  0.00  0.00    -0.061 NA
ATOM     18  O1  T13     1       2.915  -1.450   0.174  0.00  0.00    -0.329 OA
ATOM     19  C4  T13     1       3.553  -0.260   0.162  0.00  0.00    +0.298 A 
ATOM     20  N7  T13     1       4.861  -0.395   0.201  0.00  0.00    -0.189 NA
BRANCH  16  22
ATOM     21  C1  T13     1       6.931  -2.665  -1.124  0.00  0.00    +0.012 C 
ATOM     22  C2  T13     1       6.385  -2.361   0.286  0.00  0.00    +0.076 C 
ENDBRANCH  16  22
ENDBRANCH   1  19
BRANCH   7  23
ATOM     23  O2  T13     1      -1.918  -0.252   0.005  0.00  0.00    -0.469 OA
BRANCH  23  24
ATOM     24  C10 T13     1      -1.759  -1.685   0.045  0.00  0.00    +0.286 C 
BRANCH  24  25
ATOM     25  C11 T13     1      -3.106  -2.400   0.020  0.00  0.00    +0.079 A 
ATOM     26  C12 T13     1      -4.337  -1.712  -0.025  0.00  0.00    +0.027 A 
ATOM     27  C13 T13     1      -5.530  -2.453  -0.046  0.00  0.00    +0.004 A 
ATOM     28  C14 T13     1      -5.453  -3.854  -0.019  0.00  0.00    +0.023 A 
ATOM     29  C15 T13     1      -4.185  -4.462   0.029  0.00  0.00    +0.039 A 
ATOM     30  C16 T13     1      -4.040  -5.974   0.053  0.00  0.00    +0.065 C 
ATOM     31  N4  T13     1      -3.040  -3.749   0.046  0.00  0.00    -0.253 NA
ENDBRANCH  24  25
ENDBRANCH  23  24
ENDBRANCH   7  23
TORSDOF 5
