REMARK  Name = ligands_pdb/TRN_CHEMBL522055.pdb
REMARK  6 active torsions:
REMARK  status: ('A' for Active; 'I' for Inactive)
REMARK    1  A    between atoms: C2_2  and  C3_3
REMARK    2  A    between atoms: C9_9  and  C10_10
REMARK    3  A    between atoms: C18_19  and  C19_20
REMARK    4  A    between atoms: C19_20  and  O2_22
REMARK    5  A    between atoms: O2_22  and  C20_23
REMARK    6  A    between atoms: C20_23  and  C21_24
REMARK                            x       y       z     vdW  Elec       q    Type
REMARK                         _______ _______ _______ _____ _____    ______ ____
ROOT
ATOM      1  C3  T21     1      -3.253   2.317   0.399  0.00  0.00    +0.025 A 
ATOM      2  C4  T21     1      -2.320   3.248  -0.084  0.00  0.00    +0.019 A 
ATOM      3  C5  T21     1      -1.009   2.840  -0.373  0.00  0.00    +0.028 A 
ATOM      4  C6  T21     1      -0.625   1.500  -0.181  0.00  0.00    +0.053 A 
ATOM      5  C7  T21     1      -1.559   0.552   0.304  0.00  0.00    +0.006 A 
ATOM      6  C8  T21     1      -2.871   0.979   0.592  0.00  0.00    +0.024 A 
ATOM      7  C9  T21     1      -1.207  -0.885   0.516  0.00  0.00    +0.116 C 
ATOM      8  N1  T21     1      -0.195  -1.249   1.241  0.00  0.00    -0.216 NA
ATOM      9  C16 T21     1       0.892  -0.329   1.618  0.00  0.00    +0.160 C 
ATOM     10  C17 T21     1       1.404   0.393   0.394  0.00  0.00    +0.073 A 
ATOM     11  C18 T21     1       2.757   0.415  -0.106  0.00  0.00    +0.170 A 
ATOM     12  N2  T21     1       2.808   1.166  -1.222  0.00  0.00    -0.228 NA
ATOM     13  C22 T21     1       1.575   1.598  -1.434  0.00  0.00    +0.205 A 
ATOM     14  N3  T21     1       0.686   1.136  -0.483  0.00  0.00    -0.300 N 
ENDROOT
BRANCH   7  15
ATOM     15  C10 T21     1      -2.132  -1.919  -0.031  0.00  0.00    -0.019 A 
ATOM     16  C11 T21     1      -2.829  -1.691  -1.236  0.00  0.00    +0.006 A 
ATOM     17  C12 T21     1      -3.699  -2.663  -1.756  0.00  0.00    +0.000 A 
ATOM     18  C13 T21     1      -3.880  -3.879  -1.078  0.00  0.00    +0.000 A 
ATOM     19  C14 T21     1      -3.187  -4.121   0.117  0.00  0.00    +0.000 A 
ATOM     20  C15 T21     1      -2.317  -3.148   0.637  0.00  0.00    +0.006 A 
ENDBRANCH   7  15
BRANCH   1  22
ATOM     21  C1  T21     1      -5.733   3.073   0.949  0.00  0.00    +0.009 C 
ATOM     22  C2  T21     1      -4.594   2.731   0.696  0.00  0.00    -0.070 C 
ENDBRANCH   1  22
BRANCH  11  23
ATOM     23  C19 T21     1       3.951  -0.248   0.476  0.00  0.00    +0.360 C 
ATOM     24  O1  T21     1       3.935  -0.915   1.498  0.00  0.00    -0.243 OA
BRANCH  23  25
ATOM     25  O2  T21     1       5.103  -0.034  -0.235  0.00  0.00    -0.460 OA
BRANCH  25  26
ATOM     26  C20 T21     1       6.339  -0.616   0.216  0.00  0.00    +0.229 C 
ATOM     27  C21 T21     1       7.446  -0.205  -0.771  0.00  0.00    +0.048 C 
ENDBRANCH  25  26
ENDBRANCH  23  25
ENDBRANCH  11  23
TORSDOF 5
