REMARK  Name = ligands_pdb/TRN_CHEMBL361015.pdb
REMARK  5 active torsions:
REMARK  status: ('A' for Active; 'I' for Inactive)
REMARK    1  A    between atoms: C1_1  and  C2_2
REMARK    2  A    between atoms: C4_6  and  C5_7
REMARK    3  A    between atoms: C5_7  and  O1_8
REMARK    4  A    between atoms: O1_8  and  C6_9
REMARK    5  A    between atoms: C7_12  and  C8_13
REMARK                            x       y       z     vdW  Elec       q    Type
REMARK                         _______ _______ _______ _____ _____    ______ ____
ROOT
ATOM      1  C6  T16     1       0.172   0.659  -0.040  0.00  0.00    +0.237 A 
ATOM      2  N2  T16     1      -0.359  -0.590  -0.052  0.00  0.00    -0.125 NA
ATOM      3  N3  T16     1      -1.711  -0.707  -0.089  0.00  0.00    -0.189 N 
ATOM      4  C7  T16     1      -2.562  -1.791  -0.066  0.00  0.00    +0.185 A 
ATOM      5  N4  T16     1      -3.816  -1.322  -0.037  0.00  0.00    -0.127 NA
ATOM      6  N5  T16     1      -3.806  -0.055  -0.058  0.00  0.00    -0.127 NA
ATOM      7  C14 T16     1      -2.573   0.343  -0.084  0.00  0.00    +0.182 A 
ATOM      8  C15 T16     1      -2.059   1.646  -0.062  0.00  0.00    +0.010 A 
ATOM      9  C16 T16     1      -0.662   1.801  -0.047  0.00  0.00    +0.026 A 
ATOM     10  C17 T16     1      -0.208   3.260  -0.018  0.00  0.00    +0.025 C 
ATOM     11  C18 T16     1      -0.845   3.906   1.248  0.00  0.00    +0.009 C 
ATOM     12  C19 T16     1      -2.398   3.723   1.236  0.00  0.00    +0.009 C 
ATOM     13  C20 T16     1      -2.847   2.951  -0.039  0.00  0.00    +0.023 C 
ATOM     14  C21 T16     1      -2.384   3.774  -1.276  0.00  0.00    +0.009 C 
ATOM     15  C22 T16     1      -0.830   3.954  -1.264  0.00  0.00    +0.009 C 
ENDROOT
BRANCH   4  16
ATOM     16  C8  T16     1      -2.198  -3.213  -0.041  0.00  0.00    +0.021 A 
ATOM     17  C9  T16     1      -3.067  -4.151   0.555  0.00  0.00    +0.011 A 
ATOM     18  C10 T16     1      -2.736  -5.516   0.584  0.00  0.00    +0.001 A 
ATOM     19  C11 T16     1      -1.534  -5.961   0.013  0.00  0.00    +0.000 A 
ATOM     20  C12 T16     1      -0.666  -5.038  -0.591  0.00  0.00    +0.001 A 
ATOM     21  C13 T16     1      -0.997  -3.673  -0.620  0.00  0.00    +0.011 A 
ENDBRANCH   4  16
BRANCH   1  22
ATOM     22  O1  T16     1       1.538   0.840  -0.011  0.00  0.00    -0.467 OA
BRANCH  22  23
ATOM     23  C5  T16     1       2.453  -0.274   0.064  0.00  0.00    +0.304 C 
BRANCH  23  29
ATOM     24  C1  T16     1       7.419  -0.022  -0.254  0.00  0.00    +0.067 C 
ATOM     25  C2  T16     1       5.966   0.299  -0.043  0.00  0.00    +0.056 A 
ATOM     26  C3  T16     1       5.562   1.600   0.405  0.00  0.00    +0.107 A 
ATOM     27  N1  T16     1       4.210   1.510   0.478  0.00  0.00    -0.345 N 
ATOM     28  H1  T16     1       3.518   2.200   0.733  0.00  0.00    +0.167 HD
ATOM     29  C4  T16     1       3.885   0.224   0.080  0.00  0.00    +0.145 A 
ATOM     30  N6  T16     1       4.929  -0.524  -0.231  0.00  0.00    -0.234 NA
ENDBRANCH  23  29
ENDBRANCH  22  23
ENDBRANCH   1  22
TORSDOF 4
