REMARK  Name = ligands_pdb/TRN_CHEMBL505768.pdb
REMARK  12 active torsions:
REMARK  status: ('A' for Active; 'I' for Inactive)
REMARK    1  A    between atoms: C2_2  and  C3_3
REMARK    2  A    between atoms: C9_9  and  C10_10
REMARK    3  A    between atoms: C18_19  and  C19_20
REMARK    4  A    between atoms: C19_20  and  O2_22
REMARK    5  A    between atoms: O2_22  and  C20_23
REMARK    6  A    between atoms: C20_23  and  C21_24
REMARK    7  A    between atoms: C21_24  and  C22_25
REMARK    8  A    between atoms: C22_25  and  O3_26
REMARK    9  A    between atoms: O3_26  and  C23_27
REMARK   10  A    between atoms: C23_27  and  C24_29
REMARK   11  A    between atoms: C28_36  and  C29_37
REMARK   12  A    between atoms: C37_45  and  C38_46
REMARK                            x       y       z     vdW  Elec       q    Type
REMARK                         _______ _______ _______ _____ _____    ______ ____
ROOT
ATOM      1  C21 T19     1       0.033   0.432   0.645  0.00  0.00    +0.082 C 
ENDROOT
BRANCH   1   2
ATOM      2  C20 T19     1      -1.239  -0.018   1.390  0.00  0.00    +0.236 C 
BRANCH   2   3
ATOM      3  O2  T19     1      -2.396   0.438   0.664  0.00  0.00    -0.460 OA
BRANCH   3   4
ATOM      4  C19 T19     1      -3.643   0.179   1.169  0.00  0.00    +0.360 C 
ATOM      5  O1  T19     1      -3.802  -0.411   2.226  0.00  0.00    -0.243 OA
BRANCH   4  16
ATOM      6  C3  T19     1     -10.906   1.975  -0.432  0.00  0.00    +0.025 A 
ATOM      7  C4  T19     1      -9.993   2.964  -0.828  0.00  0.00    +0.019 A 
ATOM      8  C5  T19     1      -8.618   2.686  -0.836  0.00  0.00    +0.028 A 
ATOM      9  C6  T19     1      -8.149   1.417  -0.448  0.00  0.00    +0.053 A 
ATOM     10  C7  T19     1      -9.063   0.410  -0.050  0.00  0.00    +0.006 A 
ATOM     11  C8  T19     1     -10.440   0.708  -0.045  0.00  0.00    +0.024 A 
ATOM     12  C9  T19     1      -8.622  -0.957   0.365  0.00  0.00    +0.116 C 
ATOM     13  N1  T19     1      -7.742  -1.143   1.299  0.00  0.00    -0.216 NA
ATOM     14  C16 T19     1      -6.842  -0.077   1.771  0.00  0.00    +0.160 C 
ATOM     15  C17 T19     1      -6.172   0.586   0.591  0.00  0.00    +0.073 A 
ATOM     16  C18 T19     1      -4.757   0.689   0.331  0.00  0.00    +0.170 A 
ATOM     17  N5  T19     1      -4.562   1.350  -0.826  0.00  0.00    -0.228 NA
ATOM     18  C43 T19     1      -5.767   1.647  -1.289  0.00  0.00    +0.205 A 
ATOM     19  N6  T19     1      -6.774   1.184  -0.466  0.00  0.00    -0.300 N 
BRANCH  12  20
ATOM     20  C10 T19     1      -9.321  -2.131  -0.233  0.00  0.00    -0.019 A 
ATOM     21  C11 T19     1      -9.498  -3.320   0.506  0.00  0.00    +0.006 A 
ATOM     22  C12 T19     1     -10.153  -4.425  -0.061  0.00  0.00    +0.000 A 
ATOM     23  C13 T19     1     -10.637  -4.357  -1.377  0.00  0.00    +0.000 A 
ATOM     24  C14 T19     1     -10.460  -3.183  -2.125  0.00  0.00    +0.000 A 
ATOM     25  C15 T19     1      -9.805  -2.078  -1.557  0.00  0.00    +0.006 A 
ENDBRANCH  12  20
BRANCH   6  27
ATOM     26  C1  T19     1     -13.506   2.489  -0.399  0.00  0.00    +0.009 C 
ATOM     27  C2  T19     1     -12.312   2.258  -0.418  0.00  0.00    -0.070 C 
ENDBRANCH   6  27
ENDBRANCH   4  16
ENDBRANCH   3   4
ENDBRANCH   2   3
ENDBRANCH   1   2
BRANCH   1  28
ATOM     28  C22 T19     1       1.298  -0.018   1.402  0.00  0.00    +0.236 C 
BRANCH  28  29
ATOM     29  O3  T19     1       2.460   0.478   0.711  0.00  0.00    -0.460 OA
BRANCH  29  30
ATOM     30  C23 T19     1       3.702   0.235   1.240  0.00  0.00    +0.360 C 
ATOM     31  O4  T19     1       3.853  -0.388   2.280  0.00  0.00    -0.243 OA
BRANCH  30  32
ATOM     32  C24 T19     1       4.821   0.826   0.466  0.00  0.00    +0.170 A 
ATOM     33  N2  T19     1       4.644   1.509  -0.677  0.00  0.00    -0.228 NA
ATOM     34  C25 T19     1       5.929   1.862  -1.060  0.00  0.00    +0.205 A 
ATOM     35  N3  T19     1       6.842   1.418  -0.142  0.00  0.00    -0.300 N 
ATOM     36  C26 T19     1       6.137   0.742   0.818  0.00  0.00    +0.073 A 
ATOM     37  C27 T19     1       6.888   0.083   1.959  0.00  0.00    +0.160 C 
ATOM     38  N4  T19     1       7.723  -1.005   1.417  0.00  0.00    -0.216 NA
ATOM     39  C28 T19     1       8.582  -0.852   0.455  0.00  0.00    +0.116 C 
ATOM     40  C35 T19     1       9.082   0.486   0.003  0.00  0.00    +0.006 A 
ATOM     41  C36 T19     1      10.472   0.683  -0.127  0.00  0.00    +0.024 A 
ATOM     42  C37 T19     1      10.991   1.914  -0.562  0.00  0.00    +0.025 A 
ATOM     43  C40 T19     1      10.120   2.971  -0.871  0.00  0.00    +0.019 A 
ATOM     44  C41 T19     1       8.734   2.796  -0.744  0.00  0.00    +0.028 A 
ATOM     45  C42 T19     1       8.214   1.558  -0.319  0.00  0.00    +0.053 A 
BRANCH  39  46
ATOM     46  C29 T19     1       9.192  -2.063  -0.167  0.00  0.00    -0.019 A 
ATOM     47  C30 T19     1       9.562  -2.058  -1.528  0.00  0.00    +0.006 A 
ATOM     48  C31 T19     1      10.139  -3.196  -2.117  0.00  0.00    +0.000 A 
ATOM     49  C32 T19     1      10.349  -4.353  -1.352  0.00  0.00    +0.000 A 
ATOM     50  C33 T19     1       9.978  -4.373   0.001  0.00  0.00    +0.000 A 
ATOM     51  C34 T19     1       9.401  -3.235   0.589  0.00  0.00    +0.006 A 
ENDBRANCH  39  46
BRANCH  42  52
ATOM     52  C38 T19     1      12.409   2.093  -0.681  0.00  0.00    -0.070 C 
ATOM     53  C39 T19     1      13.612   2.241  -0.772  0.00  0.00    +0.009 C 
ENDBRANCH  42  52
ENDBRANCH  30  32
ENDBRANCH  29  30
ENDBRANCH  28  29
ENDBRANCH   1  28
TORSDOF 12
