REMARK  Name = ligands_pdb/TRN_CHEMBL52672.pdb
REMARK  4 active torsions:
REMARK  status: ('A' for Active; 'I' for Inactive)
REMARK    1  A    between atoms: C4_4  and  C5_5
REMARK    2  A    between atoms: C13_15  and  O1_16
REMARK    3  A    between atoms: O1_16  and  C14_17
REMARK    4  A    between atoms: C14_17  and  C15_18
REMARK                            x       y       z     vdW  Elec       q    Type
REMARK                         _______ _______ _______ _____ _____    ______ ____
ROOT
ATOM      1  C5  T22     1      -2.920  -0.602   0.027  0.00  0.00    +0.185 A 
ATOM      2  N1  T22     1      -4.042   0.212  -0.010  0.00  0.00    -0.127 NA
ATOM      3  N2  T22     1      -3.645   1.466  -0.017  0.00  0.00    -0.127 NA
ATOM      4  C6  T22     1      -2.294   1.400   0.008  0.00  0.00    +0.186 A 
ATOM      5  C7  T22     1      -1.403   2.492  -0.008  0.00  0.00    +0.033 A 
ATOM      6  C8  T22     1      -1.859   3.825  -0.029  0.00  0.00    +0.012 A 
ATOM      7  C9  T22     1      -0.936   4.883  -0.045  0.00  0.00    +0.001 A 
ATOM      8  C10 T22     1       0.442   4.615  -0.041  0.00  0.00    +0.001 A 
ATOM      9  C11 T22     1       0.904   3.288  -0.023  0.00  0.00    +0.014 A 
ATOM     10  C12 T22     1      -0.012   2.216  -0.007  0.00  0.00    +0.049 A 
ATOM     11  C13 T22     1       0.426   0.866   0.003  0.00  0.00    +0.241 A 
ATOM     12  N4  T22     1      -0.454  -0.162   0.019  0.00  0.00    -0.125 NA
ATOM     13  N5  T22     1      -1.770   0.145   0.037  0.00  0.00    -0.189 N 
ENDROOT
BRANCH   1  17
ATOM     14  C1  T22     1      -3.244  -4.885   0.051  0.00  0.00    +0.000 A 
ATOM     15  C2  T22     1      -4.224  -4.105  -0.582  0.00  0.00    +0.001 A 
ATOM     16  C3  T22     1      -4.114  -2.705  -0.586  0.00  0.00    +0.011 A 
ATOM     17  C4  T22     1      -3.021  -2.067   0.037  0.00  0.00    +0.021 A 
ATOM     18  C20 T22     1      -2.046  -2.862   0.676  0.00  0.00    +0.011 A 
ATOM     19  C21 T22     1      -2.157  -4.262   0.682  0.00  0.00    +0.001 A 
ENDBRANCH   1  17
BRANCH  11  20
ATOM     20  O1  T22     1       1.782   0.604  -0.006  0.00  0.00    -0.470 OA
BRANCH  20  21
ATOM     21  C14 T22     1       2.305  -0.737  -0.012  0.00  0.00    +0.266 C 
BRANCH  21  22
ATOM     22  C15 T22     1       3.822  -0.666  -0.023  0.00  0.00    -0.007 A 
ATOM     23  C16 T22     1       4.552  -0.619   1.177  0.00  0.00    +0.026 A 
ATOM     24  C17 T22     1       5.955  -0.550   1.118  0.00  0.00    +0.111 A 
ATOM     25  N3  T22     1       6.638  -0.526  -0.045  0.00  0.00    -0.263 NA
ATOM     26  C18 T22     1       5.939  -0.566  -1.196  0.00  0.00    +0.111 A 
ATOM     27  C19 T22     1       4.535  -0.636  -1.234  0.00  0.00    +0.026 A 
ENDBRANCH  21  22
ENDBRANCH  20  21
ENDBRANCH  11  20
TORSDOF 4
