REMARK  Name = ligands_pdb/TRN_CHEMBL432542.pdb
REMARK  6 active torsions:
REMARK  status: ('A' for Active; 'I' for Inactive)
REMARK    1  A    between atoms: C1_1  and  S1_2
REMARK    2  A    between atoms: S1_2  and  C2_3
REMARK    3  A    between atoms: C3_5  and  C4_6
REMARK    4  A    between atoms: N2_9  and  C6_10
REMARK    5  A    between atoms: C11_17  and  C12_18
REMARK    6  A    between atoms: C11_17  and  C13_19
REMARK                            x       y       z     vdW  Elec       q    Type
REMARK                         _______ _______ _______ _____ _____    ______ ____
ROOT
ATOM      1  C2  T18     1       1.372   1.251   0.381  0.00  0.00    +0.056 A 
ATOM      2  S2  T18     1      -0.177   2.034   0.211  0.00  0.00    -0.078 S 
ATOM      3  C3  T18     1      -0.909   0.424   0.168  0.00  0.00    +0.060 A 
ATOM      4  C7  T18     1       0.046  -0.597   0.208  0.00  0.00    -0.018 A 
ATOM      5  C8  T18     1       1.316  -0.110   0.356  0.00  0.00    +0.042 A 
ATOM      6  C9  T18     1       2.438  -0.985   0.468  0.00  0.00    +0.166 C 
ATOM      7  O1  T18     1       3.583  -0.567   0.454  0.00  0.00    -0.292 OA
ATOM      8  C10 T18     1       2.157  -2.485   0.602  0.00  0.00    +0.086 C 
ATOM      9  C11 T18     1       0.965  -2.939  -0.276  0.00  0.00    -0.024 C 
ATOM     10  C12 T18     1       1.311  -2.768  -1.781  0.00  0.00    +0.011 C 
ATOM     11  C13 T18     1       0.661  -4.434  -0.005  0.00  0.00    +0.011 C 
ATOM     12  C14 T18     1      -0.273  -2.079   0.095  0.00  0.00    +0.044 C 
ENDROOT
BRANCH   3  13
ATOM     13  C4  T18     1      -2.352   0.281   0.136  0.00  0.00    +0.167 C 
ATOM     14  N1  T18     1      -2.923  -0.923   0.226  0.00  0.00    -0.242 NA
ATOM     15  C5  T18     1      -4.251  -0.613   0.195  0.00  0.00    +0.235 C 
ATOM     16  N2  T18     1      -4.407   0.733   0.100  0.00  0.00    -0.182 NA
ATOM     17  C6  T18     1      -5.630   1.539   0.054  0.00  0.00    +0.132 C 
ATOM     18  N3  T18     1      -3.170   1.296   0.074  0.00  0.00    -0.144 NA
ENDBRANCH   3  13
BRANCH   1  20
ATOM     19  C1  T18     1       2.365   3.809  -0.387  0.00  0.00    +0.090 C 
ATOM     20  S1  T18     1       2.795   2.288   0.561  0.00  0.00    -0.121 S 
ENDBRANCH   1  20
TORSDOF 2
