REMARK  Name = ligands_pdb/TRN_CHEMBL178738.pdb
REMARK  4 active torsions:
REMARK  status: ('A' for Active; 'I' for Inactive)
REMARK    1  A    between atoms: C4_4  and  C5_5
REMARK    2  A    between atoms: C5_5  and  O1_6
REMARK    3  A    between atoms: O1_6  and  C6_7
REMARK    4  A    between atoms: C7_10  and  C8_11
REMARK                            x       y       z     vdW  Elec       q    Type
REMARK                         _______ _______ _______ _____ _____    ______ ____
ROOT
ATOM      1  C6  T08     1      -0.078  -0.064  -0.043  0.00  0.00    +0.237 A 
ATOM      2  N1  T08     1       0.525   1.140  -0.200  0.00  0.00    -0.125 NA
ATOM      3  N2  T08     1       1.877   1.150  -0.295  0.00  0.00    -0.193 N 
ATOM      4  C7  T08     1       2.799   2.147  -0.453  0.00  0.00    +0.158 A 
ATOM      5  N3  T08     1       4.083   1.623  -0.512  0.00  0.00    -0.132 NA
ATOM      6  N4  T08     1       4.015   0.315  -0.385  0.00  0.00    -0.128 NA
ATOM      7  C11 T08     1       2.695   0.063  -0.257  0.00  0.00    +0.182 A 
ATOM      8  C12 T08     1       2.088  -1.192  -0.094  0.00  0.00    +0.010 A 
ATOM      9  C13 T08     1       0.686  -1.253   0.016  0.00  0.00    +0.026 A 
ATOM     10  C14 T08     1       0.144  -2.672   0.182  0.00  0.00    +0.025 C 
ATOM     11  C15 T08     1       0.821  -3.272   1.448  0.00  0.00    +0.009 C 
ATOM     12  C16 T08     1       2.379  -3.199   1.324  0.00  0.00    +0.009 C 
ATOM     13  C17 T08     1       2.787  -2.547  -0.028  0.00  0.00    +0.023 C 
ATOM     14  C18 T08     1       2.190  -3.416  -1.172  0.00  0.00    +0.009 C 
ATOM     15  C19 T08     1       0.633  -3.490  -1.048  0.00  0.00    +0.009 C 
ENDROOT
BRANCH   4  16
ATOM     16  C8  T08     1       2.524   3.589  -0.569  0.00  0.00    +0.059 C 
ATOM     17  C9  T08     1       1.815   4.297   0.562  0.00  0.00    +0.012 C 
ATOM     18  C10 T08     1       3.276   4.567   0.303  0.00  0.00    +0.012 C 
ENDBRANCH   4  16
BRANCH   1  19
ATOM     19  O1  T08     1      -1.450  -0.157   0.058  0.00  0.00    -0.469 OA
BRANCH  19  20
ATOM     20  C5  T08     1      -2.309   0.978  -0.175  0.00  0.00    +0.286 C 
BRANCH  20  24
ATOM     21  C1  T08     1      -6.454   0.001   0.264  0.00  0.00    +0.020 A 
ATOM     22  C2  T08     1      -5.592  -1.013  -0.185  0.00  0.00    +0.003 A 
ATOM     23  C3  T08     1      -4.228  -0.717  -0.334  0.00  0.00    +0.027 A 
ATOM     24  C4  T08     1      -3.771   0.581  -0.021  0.00  0.00    +0.079 A 
ATOM     25  N5  T08     1      -4.605   1.555   0.404  0.00  0.00    -0.256 NA
ATOM     26  C20 T08     1      -5.916   1.269   0.544  0.00  0.00    +0.111 A 
ENDBRANCH  20  24
ENDBRANCH  19  20
ENDBRANCH   1  19
TORSDOF 4
