MODEL 1
REMARK VINA RESULT:    -6.925      0.000      0.000
REMARK INTER + INTRA:         -10.812
REMARK INTER:                  -9.759
REMARK INTRA:                  -1.053
REMARK UNBOUND:                -1.053
REMARK  Name = ligands_pdb/F3_CHEMBL14006.pdb
REMARK  9 active torsions:
REMARK  status: ('A' for Active; 'I' for Inactive)
REMARK    1  A    between atoms: C3_5  and  C4_6
REMARK    2  A    between atoms: N3_21  and  C13_22
REMARK    3  A    between atoms: N3_21  and  C16_33
REMARK    4  A    between atoms: C13_22  and  C14_25
REMARK    5  A    between atoms: C14_25  and  O1_28
REMARK    6  A    between atoms: O1_28  and  C15_29
REMARK    7  A    between atoms: C16_33  and  C17_36
REMARK    8  A    between atoms: C17_36  and  O2_39
REMARK    9  A    between atoms: O2_39  and  C18_40
REMARK                            x       y       z     vdW  Elec       q    Type
REMARK                         _______ _______ _______ _____ _____    ______ ____
ROOT
ATOM      1  C4  F02     1      97.592 119.977 140.406  0.00  0.00    +0.185 A 
ATOM      2  N1  F02     1      98.483 119.300 141.112  0.00  0.00    -0.127 NA
ATOM      3  N2  F02     1      97.905 118.927 142.298  0.00  0.00    -0.127 NA
ATOM      4  C5  F02     1      96.664 119.370 142.271  0.00  0.00    +0.186 A 
ATOM      5  C6  F02     1      95.643 119.263 143.290  0.00  0.00    +0.031 A 
ATOM      6  C7  F02     1      95.875 118.675 144.547  0.00  0.00    +0.012 A 
ATOM      7  C8  F02     1      94.854 118.669 145.509  0.00  0.00    +0.001 A 
ATOM      8  C9  F02     1      93.619 119.266 145.216  0.00  0.00    +0.001 A 
ATOM      9  C10 F02     1      93.396 119.851 143.958  0.00  0.00    +0.012 A 
ATOM     10  C11 F02     1      94.399 119.834 142.965  0.00  0.00    +0.027 A 
ATOM     11  C12 F02     1      94.218 120.433 141.613  0.00  0.00    +0.150 A 
ATOM     12  N3  F02     1      92.963 120.849 141.177  0.00  0.00    -0.309 N 
ATOM     13  N4  F02     1      95.203 120.568 140.714  0.00  0.00    -0.147 NA
ATOM     14  N5  F02     1      96.401 120.035 141.105  0.00  0.00    -0.190 N 
ENDROOT
BRANCH   1  17
ATOM     15  C1  F02     1      98.251 120.185 136.684  0.00  0.00    +0.039 A 
ATOM     16  C2  F02     1      98.001 119.669 137.967  0.00  0.00    +0.014 A 
ATOM     17  C3  F02     1      97.850 120.533 139.071  0.00  0.00    +0.021 A 
ATOM     18  C19 F02     1      97.974 121.924 138.872  0.00  0.00    +0.014 A 
ATOM     19  C20 F02     1      98.227 122.442 137.590  0.00  0.00    +0.039 A 
ATOM     20  C21 F02     1      98.361 121.571 136.498  0.00  0.00    +0.123 A 
ATOM     21  F1  F02     1      98.602 122.068 135.268  0.00  0.00    -0.205 F 
ENDBRANCH   1  17
BRANCH  12  22
ATOM     22  C13 F02     1      92.808 122.088 140.367  0.00  0.00    +0.134 C 
BRANCH  22  23
ATOM     23  C14 F02     1      92.101 123.254 141.106  0.00  0.00    +0.178 C 
BRANCH  23  24
ATOM     24  O1  F02     1      92.984 123.817 142.090  0.00  0.00    -0.381 OA
ATOM     25  C15 F02     1      92.545 125.066 142.641  0.00  0.00    +0.194 C 
ENDBRANCH  23  24
ENDBRANCH  22  23
ENDBRANCH  12  22
BRANCH  12  26
ATOM     26  C16 F02     1      91.833 119.885 141.117  0.00  0.00    +0.134 C 
BRANCH  26  27
ATOM     27  C17 F02     1      92.138 118.621 140.275  0.00  0.00    +0.178 C 
BRANCH  27  28
ATOM     28  O2  F02     1      91.965 118.919 138.879  0.00  0.00    -0.381 OA
ATOM     29  C18 F02     1      90.711 119.536 138.548  0.00  0.00    +0.194 C 
ENDBRANCH  27  28
ENDBRANCH  26  27
ENDBRANCH  12  26
TORSDOF 7
ENDMDL
MODEL 2
REMARK VINA RESULT:    -6.886      1.592      1.914
REMARK INTER + INTRA:         -10.757
REMARK INTER:                  -9.657
REMARK INTRA:                  -1.099
REMARK UNBOUND:                -1.053
REMARK  Name = ligands_pdb/F3_CHEMBL14006.pdb
REMARK  9 active torsions:
REMARK  status: ('A' for Active; 'I' for Inactive)
REMARK    1  A    between atoms: C3_5  and  C4_6
REMARK    2  A    between atoms: N3_21  and  C13_22
REMARK    3  A    between atoms: N3_21  and  C16_33
REMARK    4  A    between atoms: C13_22  and  C14_25
REMARK    5  A    between atoms: C14_25  and  O1_28
REMARK    6  A    between atoms: O1_28  and  C15_29
REMARK    7  A    between atoms: C16_33  and  C17_36
REMARK    8  A    between atoms: C17_36  and  O2_39
REMARK    9  A    between atoms: O2_39  and  C18_40
REMARK                            x       y       z     vdW  Elec       q    Type
REMARK                         _______ _______ _______ _____ _____    ______ ____
ROOT
ATOM      1  C4  F02     1      97.666 119.698 140.837  0.00  0.00    +0.185 A 
ATOM      2  N1  F02     1      98.610 119.272 141.659  0.00  0.00    -0.127 NA
ATOM      3  N2  F02     1      98.039 119.010 142.878  0.00  0.00    -0.127 NA
ATOM      4  C5  F02     1      96.752 119.263 142.756  0.00  0.00    +0.186 A 
ATOM      5  C6  F02     1      95.713 119.172 143.759  0.00  0.00    +0.031 A 
ATOM      6  C7  F02     1      95.970 118.826 145.098  0.00  0.00    +0.012 A 
ATOM      7  C8  F02     1      94.921 118.825 146.027  0.00  0.00    +0.001 A 
ATOM      8  C9  F02     1      93.628 119.188 145.619  0.00  0.00    +0.001 A 
ATOM      9  C10 F02     1      93.381 119.533 144.279  0.00  0.00    +0.012 A 
ATOM     10  C11 F02     1      94.417 119.503 143.322  0.00  0.00    +0.027 A 
ATOM     11  C12 F02     1      94.214 119.853 141.888  0.00  0.00    +0.150 A 
ATOM     12  N3  F02     1      92.933 120.014 141.366  0.00  0.00    -0.309 N 
ATOM     13  N4  F02     1      95.208 119.986 140.999  0.00  0.00    -0.147 NA
ATOM     14  N5  F02     1      96.450 119.695 141.493  0.00  0.00    -0.190 N 
ENDROOT
BRANCH   1  17
ATOM     15  C1  F02     1      97.981 119.446 137.073  0.00  0.00    +0.039 A 
ATOM     16  C2  F02     1      97.756 119.106 138.417  0.00  0.00    +0.014 A 
ATOM     17  C3  F02     1      97.902 120.070 139.435  0.00  0.00    +0.021 A 
ATOM     18  C19 F02     1      98.296 121.379 139.085  0.00  0.00    +0.014 A 
ATOM     19  C20 F02     1      98.523 121.720 137.741  0.00  0.00    +0.039 A 
ATOM     20  C21 F02     1      98.361 120.753 136.737  0.00  0.00    +0.123 A 
ATOM     21  F1  F02     1      98.578 121.081 135.447  0.00  0.00    -0.205 F 
ENDBRANCH   1  17
BRANCH  12  22
ATOM     22  C13 F02     1      92.644 121.078 140.365  0.00  0.00    +0.134 C 
BRANCH  22  23
ATOM     23  C14 F02     1      92.641 120.590 138.893  0.00  0.00    +0.178 C 
BRANCH  23  24
ATOM     24  O1  F02     1      93.319 121.545 138.060  0.00  0.00    -0.381 OA
ATOM     25  C15 F02     1      94.691 121.228 137.784  0.00  0.00    +0.194 C 
ENDBRANCH  23  24
ENDBRANCH  22  23
ENDBRANCH  12  22
BRANCH  12  26
ATOM     26  C16 F02     1      91.949 118.903 141.439  0.00  0.00    +0.134 C 
BRANCH  26  27
ATOM     27  C17 F02     1      90.489 119.377 141.644  0.00  0.00    +0.178 C 
BRANCH  27  28
ATOM     28  O2  F02     1      89.648 118.803 140.628  0.00  0.00    -0.381 OA
ATOM     29  C18 F02     1      90.291 117.819 139.804  0.00  0.00    +0.194 C 
ENDBRANCH  27  28
ENDBRANCH  26  27
ENDBRANCH  12  26
TORSDOF 7
ENDMDL
MODEL 3
REMARK VINA RESULT:    -6.679      3.541      7.093
REMARK INTER + INTRA:         -10.465
REMARK INTER:                  -9.440
REMARK INTRA:                  -1.025
REMARK UNBOUND:                -1.053
REMARK  Name = ligands_pdb/F3_CHEMBL14006.pdb
REMARK  9 active torsions:
REMARK  status: ('A' for Active; 'I' for Inactive)
REMARK    1  A    between atoms: C3_5  and  C4_6
REMARK    2  A    between atoms: N3_21  and  C13_22
REMARK    3  A    between atoms: N3_21  and  C16_33
REMARK    4  A    between atoms: C13_22  and  C14_25
REMARK    5  A    between atoms: C14_25  and  O1_28
REMARK    6  A    between atoms: O1_28  and  C15_29
REMARK    7  A    between atoms: C16_33  and  C17_36
REMARK    8  A    between atoms: C17_36  and  O2_39
REMARK    9  A    between atoms: O2_39  and  C18_40
REMARK                            x       y       z     vdW  Elec       q    Type
REMARK                         _______ _______ _______ _____ _____    ______ ____
ROOT
ATOM      1  C4  F02     1      93.516 118.784 144.191  0.00  0.00    +0.185 A 
ATOM      2  N1  F02     1      92.196 118.755 144.263  0.00  0.00    -0.127 NA
ATOM      3  N2  F02     1      91.687 119.061 143.027  0.00  0.00    -0.127 NA
ATOM      4  C5  F02     1      92.718 119.247 142.228  0.00  0.00    +0.186 A 
ATOM      5  C6  F02     1      92.723 119.617 140.829  0.00  0.00    +0.031 A 
ATOM      6  C7  F02     1      91.548 119.893 140.105  0.00  0.00    +0.012 A 
ATOM      7  C8  F02     1      91.638 120.311 138.771  0.00  0.00    +0.001 A 
ATOM      8  C9  F02     1      92.898 120.469 138.174  0.00  0.00    +0.001 A 
ATOM      9  C10 F02     1      94.066 120.192 138.904  0.00  0.00    +0.012 A 
ATOM     10  C11 F02     1      93.994 119.734 140.237  0.00  0.00    +0.027 A 
ATOM     11  C12 F02     1      95.197 119.419 141.058  0.00  0.00    +0.150 A 
ATOM     12  N3  F02     1      96.460 119.346 140.476  0.00  0.00    -0.309 N 
ATOM     13  N4  F02     1      95.159 119.137 142.368  0.00  0.00    -0.147 NA
ATOM     14  N5  F02     1      93.899 119.082 142.897  0.00  0.00    -0.190 N 
ENDROOT
BRANCH   1  17
ATOM     15  C1  F02     1      95.463 119.220 147.408  0.00  0.00    +0.039 A 
ATOM     16  C2  F02     1      94.610 119.475 146.321  0.00  0.00    +0.014 A 
ATOM     17  C3  F02     1      94.408 118.500 145.323  0.00  0.00    +0.021 A 
ATOM     18  C19 F02     1      95.091 117.269 145.423  0.00  0.00    +0.014 A 
ATOM     19  C20 F02     1      95.944 117.013 146.510  0.00  0.00    +0.039 A 
ATOM     20  C21 F02     1      96.125 117.987 147.502  0.00  0.00    +0.123 A 
ATOM     21  F1  F02     1      96.944 117.741 148.545  0.00  0.00    -0.205 F 
ENDBRANCH   1  17
BRANCH  12  22
ATOM     22  C13 F02     1      97.660 119.863 141.189  0.00  0.00    +0.134 C 
BRANCH  22  23
ATOM     23  C14 F02     1      97.871 121.394 141.063  0.00  0.00    +0.178 C 
BRANCH  23  24
ATOM     24  O1  F02     1      97.208 121.885 139.886  0.00  0.00    -0.381 OA
ATOM     25  C15 F02     1      98.087 122.407 138.880  0.00  0.00    +0.194 C 
ENDBRANCH  23  24
ENDBRANCH  22  23
ENDBRANCH  12  22
BRANCH  12  26
ATOM     26  C16 F02     1      96.721 118.389 139.370  0.00  0.00    +0.134 C 
BRANCH  26  27
ATOM     27  C17 F02     1      97.910 118.794 138.464  0.00  0.00    +0.178 C 
BRANCH  27  28
ATOM     28  O2  F02     1      97.414 119.289 137.208  0.00  0.00    -0.381 OA
ATOM     29  C18 F02     1      98.433 119.687 136.277  0.00  0.00    +0.194 C 
ENDBRANCH  27  28
ENDBRANCH  26  27
ENDBRANCH  12  26
TORSDOF 7
ENDMDL
MODEL 4
REMARK VINA RESULT:    -6.590      1.449      1.699
REMARK INTER + INTRA:         -10.340
REMARK INTER:                  -9.524
REMARK INTRA:                  -0.816
REMARK UNBOUND:                -1.053
REMARK  Name = ligands_pdb/F3_CHEMBL14006.pdb
REMARK  9 active torsions:
REMARK  status: ('A' for Active; 'I' for Inactive)
REMARK    1  A    between atoms: C3_5  and  C4_6
REMARK    2  A    between atoms: N3_21  and  C13_22
REMARK    3  A    between atoms: N3_21  and  C16_33
REMARK    4  A    between atoms: C13_22  and  C14_25
REMARK    5  A    between atoms: C14_25  and  O1_28
REMARK    6  A    between atoms: O1_28  and  C15_29
REMARK    7  A    between atoms: C16_33  and  C17_36
REMARK    8  A    between atoms: C17_36  and  O2_39
REMARK    9  A    between atoms: O2_39  and  C18_40
REMARK                            x       y       z     vdW  Elec       q    Type
REMARK                         _______ _______ _______ _____ _____    ______ ____
ROOT
ATOM      1  C4  F02     1      97.132 120.698 140.331  0.00  0.00    +0.185 A 
ATOM      2  N1  F02     1      98.154 119.903 140.603  0.00  0.00    -0.127 NA
ATOM      3  N2  F02     1      97.939 119.320 141.825  0.00  0.00    -0.127 NA
ATOM      4  C5  F02     1      96.774 119.761 142.255  0.00  0.00    +0.186 A 
ATOM      5  C6  F02     1      96.102 119.470 143.503  0.00  0.00    +0.031 A 
ATOM      6  C7  F02     1      96.667 118.663 144.507  0.00  0.00    +0.012 A 
ATOM      7  C8  F02     1      95.983 118.482 145.717  0.00  0.00    +0.001 A 
ATOM      8  C9  F02     1      94.752 119.123 145.924  0.00  0.00    +0.001 A 
ATOM      9  C10 F02     1      94.195 119.927 144.916  0.00  0.00    +0.012 A 
ATOM     10  C11 F02     1      94.851 120.091 143.677  0.00  0.00    +0.027 A 
ATOM     11  C12 F02     1      94.307 120.927 142.570  0.00  0.00    +0.150 A 
ATOM     12  N3  F02     1      93.004 121.415 142.617  0.00  0.00    -0.309 N 
ATOM     13  N4  F02     1      94.983 121.223 141.451  0.00  0.00    -0.147 NA
ATOM     14  N5  F02     1      96.211 120.628 141.359  0.00  0.00    -0.190 N 
ENDROOT
BRANCH   1  17
ATOM     15  C1  F02     1      97.983 123.051 137.491  0.00  0.00    +0.039 A 
ATOM     16  C2  F02     1      98.086 122.287 138.666  0.00  0.00    +0.014 A 
ATOM     17  C3  F02     1      97.009 121.488 139.099  0.00  0.00    +0.021 A 
ATOM     18  C19 F02     1      95.817 121.482 138.344  0.00  0.00    +0.014 A 
ATOM     19  C20 F02     1      95.711 122.246 137.170  0.00  0.00    +0.039 A 
ATOM     20  C21 F02     1      96.796 123.027 136.744  0.00  0.00    +0.123 A 
ATOM     21  F1  F02     1      96.695 123.760 135.617  0.00  0.00    -0.205 F 
ENDBRANCH   1  17
BRANCH  12  22
ATOM     22  C13 F02     1      92.682 122.781 142.121  0.00  0.00    +0.134 C 
BRANCH  22  23
ATOM     23  C14 F02     1      91.273 123.293 142.518  0.00  0.00    +0.178 C 
BRANCH  23  24
ATOM     24  O1  F02     1      91.333 124.693 142.840  0.00  0.00    -0.381 OA
ATOM     25  C15 F02     1      92.637 125.278 142.715  0.00  0.00    +0.194 C 
ENDBRANCH  23  24
ENDBRANCH  22  23
ENDBRANCH  12  22
BRANCH  12  26
ATOM     26  C16 F02     1      91.857 120.479 142.739  0.00  0.00    +0.134 C 
BRANCH  26  27
ATOM     27  C17 F02     1      91.453 119.812 141.400  0.00  0.00    +0.178 C 
BRANCH  27  28
ATOM     28  O2  F02     1      92.278 118.657 141.169  0.00  0.00    -0.381 OA
ATOM     29  C18 F02     1      92.924 118.630 139.887  0.00  0.00    +0.194 C 
ENDBRANCH  27  28
ENDBRANCH  26  27
ENDBRANCH  12  26
TORSDOF 7
ENDMDL
MODEL 5
REMARK VINA RESULT:    -6.500      2.738      6.055
REMARK INTER + INTRA:         -10.213
REMARK INTER:                  -9.084
REMARK INTRA:                  -1.129
REMARK UNBOUND:                -1.053
REMARK  Name = ligands_pdb/F3_CHEMBL14006.pdb
REMARK  9 active torsions:
REMARK  status: ('A' for Active; 'I' for Inactive)
REMARK    1  A    between atoms: C3_5  and  C4_6
REMARK    2  A    between atoms: N3_21  and  C13_22
REMARK    3  A    between atoms: N3_21  and  C16_33
REMARK    4  A    between atoms: C13_22  and  C14_25
REMARK    5  A    between atoms: C14_25  and  O1_28
REMARK    6  A    between atoms: O1_28  and  C15_29
REMARK    7  A    between atoms: C16_33  and  C17_36
REMARK    8  A    between atoms: C17_36  and  O2_39
REMARK    9  A    between atoms: O2_39  and  C18_40
REMARK                            x       y       z     vdW  Elec       q    Type
REMARK                         _______ _______ _______ _____ _____    ______ ____
ROOT
ATOM      1  C4  F02     1      91.633 119.796 141.881  0.00  0.00    +0.185 A 
ATOM      2  N1  F02     1      90.905 120.045 142.958  0.00  0.00    -0.127 NA
ATOM      3  N2  F02     1      91.701 119.891 144.064  0.00  0.00    -0.127 NA
ATOM      4  C5  F02     1      92.902 119.573 143.626  0.00  0.00    +0.186 A 
ATOM      5  C6  F02     1      94.094 119.278 144.391  0.00  0.00    +0.031 A 
ATOM      6  C7  F02     1      94.113 119.241 145.797  0.00  0.00    +0.012 A 
ATOM      7  C8  F02     1      95.291 118.880 146.466  0.00  0.00    +0.001 A 
ATOM      8  C9  F02     1      96.434 118.540 145.727  0.00  0.00    +0.001 A 
ATOM      9  C10 F02     1      96.407 118.579 144.323  0.00  0.00    +0.012 A 
ATOM     10  C11 F02     1      95.241 118.976 143.634  0.00  0.00    +0.027 A 
ATOM     11  C12 F02     1      95.155 119.041 142.147  0.00  0.00    +0.150 A 
ATOM     12  N3  F02     1      96.297 118.928 141.359  0.00  0.00    -0.309 N 
ATOM     13  N4  F02     1      94.018 119.260 141.471  0.00  0.00    -0.147 NA
ATOM     14  N5  F02     1      92.928 119.502 142.261  0.00  0.00    -0.190 N 
ENDROOT
BRANCH   1  17
ATOM     15  C1  F02     1      90.018 118.791 138.608  0.00  0.00    +0.039 A 
ATOM     16  C2  F02     1      90.511 118.738 139.923  0.00  0.00    +0.014 A 
ATOM     17  C3  F02     1      91.119 119.869 140.507  0.00  0.00    +0.021 A 
ATOM     18  C19 F02     1      91.242 121.049 139.743  0.00  0.00    +0.014 A 
ATOM     19  C20 F02     1      90.750 121.102 138.428  0.00  0.00    +0.039 A 
ATOM     20  C21 F02     1      90.136 119.974 137.865  0.00  0.00    +0.123 A 
ATOM     21  F1  F02     1      89.663 120.026 136.603  0.00  0.00    -0.205 F 
ENDBRANCH   1  17
BRANCH  12  22
ATOM     22  C13 F02     1      96.265 118.180 140.072  0.00  0.00    +0.134 C 
BRANCH  22  23
ATOM     23  C14 F02     1      97.458 118.478 139.127  0.00  0.00    +0.178 C 
BRANCH  23  24
ATOM     24  O1  F02     1      96.975 119.021 137.887  0.00  0.00    -0.381 OA
ATOM     25  C15 F02     1      97.995 119.279 136.911  0.00  0.00    +0.194 C 
ENDBRANCH  23  24
ENDBRANCH  22  23
ENDBRANCH  12  22
BRANCH  12  26
ATOM     26  C16 F02     1      97.424 119.880 141.532  0.00  0.00    +0.134 C 
BRANCH  26  27
ATOM     27  C17 F02     1      96.993 121.367 141.500  0.00  0.00    +0.178 C 
BRANCH  27  28
ATOM     28  O2  F02     1      96.827 121.792 140.137  0.00  0.00    -0.381 OA
ATOM     29  C18 F02     1      98.053 122.037 139.432  0.00  0.00    +0.194 C 
ENDBRANCH  27  28
ENDBRANCH  26  27
ENDBRANCH  12  26
TORSDOF 7
ENDMDL
MODEL 6
REMARK VINA RESULT:    -6.475      3.635      7.032
REMARK INTER + INTRA:         -10.178
REMARK INTER:                  -9.238
REMARK INTRA:                  -0.940
REMARK UNBOUND:                -1.053
REMARK  Name = ligands_pdb/F3_CHEMBL14006.pdb
REMARK  9 active torsions:
REMARK  status: ('A' for Active; 'I' for Inactive)
REMARK    1  A    between atoms: C3_5  and  C4_6
REMARK    2  A    between atoms: N3_21  and  C13_22
REMARK    3  A    between atoms: N3_21  and  C16_33
REMARK    4  A    between atoms: C13_22  and  C14_25
REMARK    5  A    between atoms: C14_25  and  O1_28
REMARK    6  A    between atoms: O1_28  and  C15_29
REMARK    7  A    between atoms: C16_33  and  C17_36
REMARK    8  A    between atoms: C17_36  and  O2_39
REMARK    9  A    between atoms: O2_39  and  C18_40
REMARK                            x       y       z     vdW  Elec       q    Type
REMARK                         _______ _______ _______ _____ _____    ______ ____
ROOT
ATOM      1  C4  F02     1      93.073 118.352 143.717  0.00  0.00    +0.185 A 
ATOM      2  N1  F02     1      91.831 117.902 143.776  0.00  0.00    -0.127 NA
ATOM      3  N2  F02     1      91.211 118.183 142.585  0.00  0.00    -0.127 NA
ATOM      4  C5  F02     1      92.105 118.778 141.823  0.00  0.00    +0.186 A 
ATOM      5  C6  F02     1      91.948 119.299 140.482  0.00  0.00    +0.031 A 
ATOM      6  C7  F02     1      90.722 119.279 139.792  0.00  0.00    +0.012 A 
ATOM      7  C8  F02     1      90.633 119.864 138.521  0.00  0.00    +0.001 A 
ATOM      8  C9  F02     1      91.760 120.481 137.958  0.00  0.00    +0.001 A 
ATOM      9  C10 F02     1      92.981 120.496 138.654  0.00  0.00    +0.012 A 
ATOM     10  C11 F02     1      93.099 119.879 139.918  0.00  0.00    +0.027 A 
ATOM     11  C12 F02     1      94.367 119.858 140.700  0.00  0.00    +0.150 A 
ATOM     12  N3  F02     1      95.570 120.256 140.122  0.00  0.00    -0.309 N 
ATOM     13  N4  F02     1      94.463 119.421 141.963  0.00  0.00    -0.147 NA
ATOM     14  N5  F02     1      93.301 118.910 142.473  0.00  0.00    -0.190 N 
ENDROOT
BRANCH   1  17
ATOM     15  C1  F02     1      95.619 116.851 146.083  0.00  0.00    +0.039 A 
ATOM     16  C2  F02     1      94.688 116.990 145.040  0.00  0.00    +0.014 A 
ATOM     17  C3  F02     1      94.047 118.225 144.810  0.00  0.00    +0.021 A 
ATOM     18  C19 F02     1      94.340 119.314 145.656  0.00  0.00    +0.014 A 
ATOM     19  C20 F02     1      95.270 119.177 146.700  0.00  0.00    +0.039 A 
ATOM     20  C21 F02     1      95.910 117.947 146.909  0.00  0.00    +0.123 A 
ATOM     21  F1  F02     1      96.803 117.815 147.911  0.00  0.00    -0.205 F 
ENDBRANCH   1  17
BRANCH  12  22
ATOM     22  C13 F02     1      96.573 121.031 140.902  0.00  0.00    +0.134 C 
BRANCH  22  23
ATOM     23  C14 F02     1      97.961 120.350 141.019  0.00  0.00    +0.178 C 
BRANCH  23  24
ATOM     24  O1  F02     1      97.862 119.173 141.838  0.00  0.00    -0.381 OA
ATOM     25  C15 F02     1      97.654 119.432 143.233  0.00  0.00    +0.194 C 
ENDBRANCH  23  24
ENDBRANCH  22  23
ENDBRANCH  12  22
BRANCH  12  26
ATOM     26  C16 F02     1      96.078 119.572 138.905  0.00  0.00    +0.134 C 
BRANCH  26  27
ATOM     27  C17 F02     1      96.515 120.544 137.781  0.00  0.00    +0.178 C 
BRANCH  27  28
ATOM     28  O2  F02     1      97.218 119.816 136.759  0.00  0.00    -0.381 OA
ATOM     29  C18 F02     1      98.619 120.116 136.666  0.00  0.00    +0.194 C 
ENDBRANCH  27  28
ENDBRANCH  26  27
ENDBRANCH  12  26
TORSDOF 7
ENDMDL
MODEL 7
REMARK VINA RESULT:    -6.411      3.535      4.803
REMARK INTER + INTRA:         -10.088
REMARK INTER:                  -9.090
REMARK INTRA:                  -0.998
REMARK UNBOUND:                -1.053
REMARK  Name = ligands_pdb/F3_CHEMBL14006.pdb
REMARK  9 active torsions:
REMARK  status: ('A' for Active; 'I' for Inactive)
REMARK    1  A    between atoms: C3_5  and  C4_6
REMARK    2  A    between atoms: N3_21  and  C13_22
REMARK    3  A    between atoms: N3_21  and  C16_33
REMARK    4  A    between atoms: C13_22  and  C14_25
REMARK    5  A    between atoms: C14_25  and  O1_28
REMARK    6  A    between atoms: O1_28  and  C15_29
REMARK    7  A    between atoms: C16_33  and  C17_36
REMARK    8  A    between atoms: C17_36  and  O2_39
REMARK    9  A    between atoms: O2_39  and  C18_40
REMARK                            x       y       z     vdW  Elec       q    Type
REMARK                         _______ _______ _______ _____ _____    ______ ____
ROOT
ATOM      1  C4  F02     1      96.410 123.592 136.995  0.00  0.00    +0.185 A 
ATOM      2  N1  F02     1      97.604 123.129 136.662  0.00  0.00    -0.127 NA
ATOM      3  N2  F02     1      97.738 121.864 137.173  0.00  0.00    -0.127 NA
ATOM      4  C5  F02     1      96.607 121.582 137.788  0.00  0.00    +0.186 A 
ATOM      5  C6  F02     1      96.248 120.383 138.514  0.00  0.00    +0.031 A 
ATOM      6  C7  F02     1      97.138 119.312 138.713  0.00  0.00    +0.012 A 
ATOM      7  C8  F02     1      96.739 118.213 139.486  0.00  0.00    +0.001 A 
ATOM      8  C9  F02     1      95.463 118.199 140.070  0.00  0.00    +0.001 A 
ATOM      9  C10 F02     1      94.580 119.273 139.866  0.00  0.00    +0.012 A 
ATOM     10  C11 F02     1      94.951 120.371 139.060  0.00  0.00    +0.027 A 
ATOM     11  C12 F02     1      94.056 121.534 138.803  0.00  0.00    +0.150 A 
ATOM     12  N3  F02     1      92.712 121.496 139.167  0.00  0.00    -0.309 N 
ATOM     13  N4  F02     1      94.442 122.654 138.176  0.00  0.00    -0.147 NA
ATOM     14  N5  F02     1      95.726 122.625 137.708  0.00  0.00    -0.190 N 
ENDROOT
BRANCH   1  17
ATOM     15  C1  F02     1      94.771 126.359 134.998  0.00  0.00    +0.039 A 
ATOM     16  C2  F02     1      95.256 125.095 135.377  0.00  0.00    +0.014 A 
ATOM     17  C3  F02     1      95.906 124.918 136.616  0.00  0.00    +0.021 A 
ATOM     18  C19 F02     1      96.080 126.034 137.461  0.00  0.00    +0.014 A 
ATOM     19  C20 F02     1      95.597 127.298 137.083  0.00  0.00    +0.039 A 
ATOM     20  C21 F02     1      94.940 127.457 135.854  0.00  0.00    +0.123 A 
ATOM     21  F1  F02     1      94.476 128.670 135.492  0.00  0.00    -0.205 F 
ENDBRANCH   1  17
BRANCH  12  22
ATOM     22  C13 F02     1      92.036 122.701 139.719  0.00  0.00    +0.134 C 
BRANCH  22  23
ATOM     23  C14 F02     1      91.951 122.737 141.267  0.00  0.00    +0.178 C 
BRANCH  23  24
ATOM     24  O1  F02     1      93.272 122.822 141.828  0.00  0.00    -0.381 OA
ATOM     25  C15 F02     1      93.648 121.703 142.643  0.00  0.00    +0.194 C 
ENDBRANCH  23  24
ENDBRANCH  22  23
ENDBRANCH  12  22
BRANCH  12  26
ATOM     26  C16 F02     1      91.820 120.438 138.625  0.00  0.00    +0.134 C 
BRANCH  26  27
ATOM     27  C17 F02     1      90.371 120.920 138.363  0.00  0.00    +0.178 C 
BRANCH  27  28
ATOM     28  O2  F02     1      90.076 120.818 136.959  0.00  0.00    -0.381 OA
ATOM     29  C18 F02     1      88.955 119.978 136.643  0.00  0.00    +0.194 C 
ENDBRANCH  27  28
ENDBRANCH  26  27
ENDBRANCH  12  26
TORSDOF 7
ENDMDL
MODEL 8
REMARK VINA RESULT:    -6.299      2.567      4.920
REMARK INTER + INTRA:          -9.930
REMARK INTER:                  -8.968
REMARK INTRA:                  -0.962
REMARK UNBOUND:                -1.053
REMARK  Name = ligands_pdb/F3_CHEMBL14006.pdb
REMARK  9 active torsions:
REMARK  status: ('A' for Active; 'I' for Inactive)
REMARK    1  A    between atoms: C3_5  and  C4_6
REMARK    2  A    between atoms: N3_21  and  C13_22
REMARK    3  A    between atoms: N3_21  and  C16_33
REMARK    4  A    between atoms: C13_22  and  C14_25
REMARK    5  A    between atoms: C14_25  and  O1_28
REMARK    6  A    between atoms: O1_28  and  C15_29
REMARK    7  A    between atoms: C16_33  and  C17_36
REMARK    8  A    between atoms: C17_36  and  O2_39
REMARK    9  A    between atoms: O2_39  and  C18_40
REMARK                            x       y       z     vdW  Elec       q    Type
REMARK                         _______ _______ _______ _____ _____    ______ ____
ROOT
ATOM      1  C4  F02     1      94.128 120.795 138.551  0.00  0.00    +0.185 A 
ATOM      2  N1  F02     1      93.031 121.032 137.851  0.00  0.00    -0.127 NA
ATOM      3  N2  F02     1      91.948 120.634 138.592  0.00  0.00    -0.127 NA
ATOM      4  C5  F02     1      92.418 120.184 139.738  0.00  0.00    +0.186 A 
ATOM      5  C6  F02     1      91.690 119.625 140.856  0.00  0.00    +0.031 A 
ATOM      6  C7  F02     1      90.297 119.429 140.843  0.00  0.00    +0.012 A 
ATOM      7  C8  F02     1      89.671 118.818 141.938  0.00  0.00    +0.001 A 
ATOM      8  C9  F02     1      90.442 118.389 143.030  0.00  0.00    +0.001 A 
ATOM      9  C10 F02     1      91.833 118.588 143.035  0.00  0.00    +0.012 A 
ATOM     10  C11 F02     1      92.475 119.235 141.957  0.00  0.00    +0.027 A 
ATOM     11  C12 F02     1      93.944 119.479 141.910  0.00  0.00    +0.150 A 
ATOM     12  N3  F02     1      94.739 119.278 143.035  0.00  0.00    -0.309 N 
ATOM     13  N4  F02     1      94.593 119.945 140.833  0.00  0.00    -0.147 NA
ATOM     14  N5  F02     1      93.782 120.263 139.779  0.00  0.00    -0.190 N 
ENDROOT
BRANCH   1  17
ATOM     15  C1  F02     1      97.139 122.736 137.329  0.00  0.00    +0.039 A 
ATOM     16  C2  F02     1      95.846 122.429 137.783  0.00  0.00    +0.014 A 
ATOM     17  C3  F02     1      95.486 121.098 138.081  0.00  0.00    +0.021 A 
ATOM     18  C19 F02     1      96.440 120.076 137.897  0.00  0.00    +0.014 A 
ATOM     19  C20 F02     1      97.734 120.381 137.441  0.00  0.00    +0.039 A 
ATOM     20  C21 F02     1      98.082 121.711 137.162  0.00  0.00    +0.123 A 
ATOM     21  F1  F02     1      99.324 122.003 136.726  0.00  0.00    -0.205 F 
ENDBRANCH   1  17
BRANCH  12  22
ATOM     22  C13 F02     1      96.102 118.692 142.913  0.00  0.00    +0.134 C 
BRANCH  22  23
ATOM     23  C14 F02     1      97.253 119.730 142.961  0.00  0.00    +0.178 C 
BRANCH  23  24
ATOM     24  O1  F02     1      97.786 119.932 141.641  0.00  0.00    -0.381 OA
ATOM     25  C15 F02     1      97.759 121.293 141.189  0.00  0.00    +0.194 C 
ENDBRANCH  23  24
ENDBRANCH  22  23
ENDBRANCH  12  22
BRANCH  12  26
ATOM     26  C16 F02     1      94.458 120.018 144.292  0.00  0.00    +0.134 C 
BRANCH  26  27
ATOM     27  C17 F02     1      94.292 119.103 145.530  0.00  0.00    +0.178 C 
BRANCH  27  28
ATOM     28  O2  F02     1      95.253 119.470 146.534  0.00  0.00    -0.381 OA
ATOM     29  C18 F02     1      96.325 118.531 146.709  0.00  0.00    +0.194 C 
ENDBRANCH  27  28
ENDBRANCH  26  27
ENDBRANCH  12  26
TORSDOF 7
ENDMDL
MODEL 9
REMARK VINA RESULT:    -6.277      3.112      6.481
REMARK INTER + INTRA:          -9.899
REMARK INTER:                  -9.323
REMARK INTRA:                  -0.576
REMARK UNBOUND:                -1.053
REMARK  Name = ligands_pdb/F3_CHEMBL14006.pdb
REMARK  9 active torsions:
REMARK  status: ('A' for Active; 'I' for Inactive)
REMARK    1  A    between atoms: C3_5  and  C4_6
REMARK    2  A    between atoms: N3_21  and  C13_22
REMARK    3  A    between atoms: N3_21  and  C16_33
REMARK    4  A    between atoms: C13_22  and  C14_25
REMARK    5  A    between atoms: C14_25  and  O1_28
REMARK    6  A    between atoms: O1_28  and  C15_29
REMARK    7  A    between atoms: C16_33  and  C17_36
REMARK    8  A    between atoms: C17_36  and  O2_39
REMARK    9  A    between atoms: O2_39  and  C18_40
REMARK                            x       y       z     vdW  Elec       q    Type
REMARK                         _______ _______ _______ _____ _____    ______ ____
ROOT
ATOM      1  C4  F02     1      96.728 119.238 143.550  0.00  0.00    +0.185 A 
ATOM      2  N1  F02     1      97.924 119.008 143.036  0.00  0.00    -0.127 NA
ATOM      3  N2  F02     1      97.889 119.312 141.699  0.00  0.00    -0.127 NA
ATOM      4  C5  F02     1      96.671 119.743 141.441  0.00  0.00    +0.186 A 
ATOM      5  C6  F02     1      96.110 120.165 140.176  0.00  0.00    +0.031 A 
ATOM      6  C7  F02     1      96.827 120.119 138.967  0.00  0.00    +0.012 A 
ATOM      7  C8  F02     1      96.194 120.480 137.770  0.00  0.00    +0.001 A 
ATOM      8  C9  F02     1      94.845 120.866 137.786  0.00  0.00    +0.001 A 
ATOM      9  C10 F02     1      94.135 120.910 138.998  0.00  0.00    +0.012 A 
ATOM     10  C11 F02     1      94.768 120.585 140.217  0.00  0.00    +0.027 A 
ATOM     11  C12 F02     1      94.069 120.618 141.533  0.00  0.00    +0.150 A 
ATOM     12  N3  F02     1      92.805 121.190 141.657  0.00  0.00    -0.309 N 
ATOM     13  N4  F02     1      94.600 120.164 142.677  0.00  0.00    -0.147 NA
ATOM     14  N5  F02     1      95.891 119.727 142.565  0.00  0.00    -0.190 N 
ENDROOT
BRANCH   1  17
ATOM     15  C1  F02     1      97.088 118.508 147.247  0.00  0.00    +0.039 A 
ATOM     16  C2  F02     1      97.398 118.712 145.892  0.00  0.00    +0.014 A 
ATOM     17  C3  F02     1      96.386 119.031 144.964  0.00  0.00    +0.021 A 
ATOM     18  C19 F02     1      95.052 119.124 145.414  0.00  0.00    +0.014 A 
ATOM     19  C20 F02     1      94.740 118.919 146.768  0.00  0.00    +0.039 A 
ATOM     20  C21 F02     1      95.759 118.616 147.683  0.00  0.00    +0.123 A 
ATOM     21  F1  F02     1      95.459 118.420 148.983  0.00  0.00    -0.205 F 
ENDBRANCH   1  17
BRANCH  12  22
ATOM     22  C13 F02     1      91.775 120.582 142.543  0.00  0.00    +0.134 C 
BRANCH  22  23
ATOM     23  C14 F02     1      90.894 119.506 141.859  0.00  0.00    +0.178 C 
BRANCH  23  24
ATOM     24  O1  F02     1      91.010 119.613 140.430  0.00  0.00    -0.381 OA
ATOM     25  C15 F02     1      91.370 118.393 139.767  0.00  0.00    +0.194 C 
ENDBRANCH  23  24
ENDBRANCH  22  23
ENDBRANCH  12  22
BRANCH  12  26
ATOM     26  C16 F02     1      92.587 122.611 141.282  0.00  0.00    +0.134 C 
BRANCH  26  27
ATOM     27  C17 F02     1      92.268 123.531 142.488  0.00  0.00    +0.178 C 
BRANCH  27  28
ATOM     28  O2  F02     1      93.368 124.428 142.714  0.00  0.00    -0.381 OA
ATOM     29  C18 F02     1      92.989 125.739 143.163  0.00  0.00    +0.194 C 
ENDBRANCH  27  28
ENDBRANCH  26  27
ENDBRANCH  12  26
TORSDOF 7
ENDMDL
MODEL 10
REMARK VINA RESULT:    -6.036      3.332      4.522
REMARK INTER + INTRA:          -9.559
REMARK INTER:                  -8.652
REMARK INTRA:                  -0.907
REMARK UNBOUND:                -1.053
REMARK  Name = ligands_pdb/F3_CHEMBL14006.pdb
REMARK  9 active torsions:
REMARK  status: ('A' for Active; 'I' for Inactive)
REMARK    1  A    between atoms: C3_5  and  C4_6
REMARK    2  A    between atoms: N3_21  and  C13_22
REMARK    3  A    between atoms: N3_21  and  C16_33
REMARK    4  A    between atoms: C13_22  and  C14_25
REMARK    5  A    between atoms: C14_25  and  O1_28
REMARK    6  A    between atoms: O1_28  and  C15_29
REMARK    7  A    between atoms: C16_33  and  C17_36
REMARK    8  A    between atoms: C17_36  and  O2_39
REMARK    9  A    between atoms: O2_39  and  C18_40
REMARK                            x       y       z     vdW  Elec       q    Type
REMARK                         _______ _______ _______ _____ _____    ______ ____
ROOT
ATOM      1  C4  F02     1      96.220 123.203 136.934  0.00  0.00    +0.185 A 
ATOM      2  N1  F02     1      97.298 122.540 136.551  0.00  0.00    -0.127 NA
ATOM      3  N2  F02     1      97.278 121.302 137.140  0.00  0.00    -0.127 NA
ATOM      4  C5  F02     1      96.170 121.238 137.851  0.00  0.00    +0.186 A 
ATOM      5  C6  F02     1      95.692 120.156 138.684  0.00  0.00    +0.031 A 
ATOM      6  C7  F02     1      96.421 118.972 138.896  0.00  0.00    +0.012 A 
ATOM      7  C8  F02     1      95.922 117.998 139.771  0.00  0.00    +0.001 A 
ATOM      8  C9  F02     1      94.710 118.220 140.442  0.00  0.00    +0.001 A 
ATOM      9  C10 F02     1      93.987 119.405 140.225  0.00  0.00    +0.012 A 
ATOM     10  C11 F02     1      94.456 120.381 139.319  0.00  0.00    +0.027 A 
ATOM     11  C12 F02     1      93.731 121.654 139.044  0.00  0.00    +0.150 A 
ATOM     12  N3  F02     1      92.431 121.849 139.502  0.00  0.00    -0.309 N 
ATOM     13  N4  F02     1      94.232 122.660 138.313  0.00  0.00    -0.147 NA
ATOM     14  N5  F02     1      95.456 122.400 137.759  0.00  0.00    -0.190 N 
ENDROOT
BRANCH   1  17
ATOM     15  C1  F02     1      95.940 126.978 136.906  0.00  0.00    +0.039 A 
ATOM     16  C2  F02     1      96.246 125.667 137.307  0.00  0.00    +0.014 A 
ATOM     17  C3  F02     1      95.895 124.568 136.497  0.00  0.00    +0.021 A 
ATOM     18  C19 F02     1      95.214 124.804 135.284  0.00  0.00    +0.014 A 
ATOM     19  C20 F02     1      94.906 126.114 134.882  0.00  0.00    +0.039 A 
ATOM     20  C21 F02     1      95.274 127.199 135.692  0.00  0.00    +0.123 A 
ATOM     21  F1  F02     1      94.979 128.457 135.305  0.00  0.00    -0.205 F 
ENDBRANCH   1  17
BRANCH  12  22
ATOM     22  C13 F02     1      91.993 123.177 140.013  0.00  0.00    +0.134 C 
BRANCH  22  23
ATOM     23  C14 F02     1      92.243 123.395 141.528  0.00  0.00    +0.178 C 
BRANCH  23  24
ATOM     24  O1  F02     1      92.911 124.650 141.739  0.00  0.00    -0.381 OA
ATOM     25  C15 F02     1      92.658 125.254 143.015  0.00  0.00    +0.194 C 
ENDBRANCH  23  24
ENDBRANCH  22  23
ENDBRANCH  12  22
BRANCH  12  26
ATOM     26  C16 F02     1      91.347 120.915 139.101  0.00  0.00    +0.134 C 
BRANCH  26  27
ATOM     27  C17 F02     1      90.352 120.590 140.242  0.00  0.00    +0.178 C 
BRANCH  27  28
ATOM     28  O2  F02     1      89.952 119.212 140.155  0.00  0.00    -0.381 OA
ATOM     29  C18 F02     1      90.388 118.535 138.966  0.00  0.00    +0.194 C 
ENDBRANCH  27  28
ENDBRANCH  26  27
ENDBRANCH  12  26
TORSDOF 7
ENDMDL
