MODEL 1
REMARK VINA RESULT:    -8.342      0.000      0.000
REMARK INTER + INTRA:          -9.543
REMARK INTER:                  -9.317
REMARK INTRA:                  -0.225
REMARK UNBOUND:                -0.225
REMARK  Name = ligands_pdb/F3_CHEMBL422577.pdb
REMARK  3 active torsions:
REMARK  status: ('A' for Active; 'I' for Inactive)
REMARK    1  A    between atoms: C3_6  and  C4_7
REMARK    2  A    between atoms: C8_14  and  O1_15
REMARK    3  A    between atoms: O1_15  and  C9_16
REMARK                            x       y       z     vdW  Elec       q    Type
REMARK                         _______ _______ _______ _____ _____    ______ ____
ROOT
ATOM      1  C4  F11     1      96.437 115.978 148.770  0.00  0.00    -0.013 A 
ATOM      2  C5  F11     1      97.174 116.320 149.932  0.00  0.00    +0.009 A 
ATOM      3  C6  F11     1      97.450 117.660 150.251  0.00  0.00    +0.004 A 
ATOM      4  C7  F11     1      96.997 118.693 149.416  0.00  0.00    +0.045 A 
ATOM      5  C8  F11     1      96.263 118.383 148.255  0.00  0.00    +0.121 A 
ATOM      6  C10 F11     1      95.990 117.041 147.944  0.00  0.00    +0.054 A 
ENDROOT
BRANCH   1  10
ATOM      7  C1  F11     1      95.648 111.863 147.874  0.00  0.00    +0.111 A 
ATOM      8  N1  F11     1      96.454 112.170 148.908  0.00  0.00    -0.263 NA
ATOM      9  C2  F11     1      96.687 113.471 149.174  0.00  0.00    +0.119 A 
ATOM     10  C3  F11     1      96.139 114.548 148.428  0.00  0.00    +0.000 A 
ATOM     11  C11 F11     1      95.295 114.196 147.343  0.00  0.00    +0.011 A 
ATOM     12  C12 F11     1      95.047 112.842 147.065  0.00  0.00    +0.020 A 
ENDBRANCH   1  10
BRANCH   5  13
ATOM     13  O1  F11     1      95.793 119.351 147.391  0.00  0.00    -0.495 OA
ATOM     14  C9  F11     1      95.112 119.049 146.161  0.00  0.00    +0.277 C 
ENDBRANCH   5  13
TORSDOF 2
ENDMDL
MODEL 2
REMARK VINA RESULT:    -7.844      2.722      5.236
REMARK INTER + INTRA:          -8.987
REMARK INTER:                  -8.744
REMARK INTRA:                  -0.243
REMARK UNBOUND:                -0.225
REMARK  Name = ligands_pdb/F3_CHEMBL422577.pdb
REMARK  3 active torsions:
REMARK  status: ('A' for Active; 'I' for Inactive)
REMARK    1  A    between atoms: C3_6  and  C4_7
REMARK    2  A    between atoms: C8_14  and  O1_15
REMARK    3  A    between atoms: O1_15  and  C9_16
REMARK                            x       y       z     vdW  Elec       q    Type
REMARK                         _______ _______ _______ _____ _____    ______ ____
ROOT
ATOM      1  C4  F11     1      96.426 115.056 148.787  0.00  0.00    -0.013 A 
ATOM      2  C5  F11     1      97.180 114.139 149.562  0.00  0.00    +0.009 A 
ATOM      3  C6  F11     1      97.051 112.753 149.380  0.00  0.00    +0.004 A 
ATOM      4  C7  F11     1      96.164 112.247 148.418  0.00  0.00    +0.045 A 
ATOM      5  C8  F11     1      95.401 113.133 147.633  0.00  0.00    +0.121 A 
ATOM      6  C10 F11     1      95.537 114.518 147.821  0.00  0.00    +0.054 A 
ENDROOT
BRANCH   1  10
ATOM      7  C1  F11     1      96.765 119.303 149.241  0.00  0.00    +0.111 A 
ATOM      8  N1  F11     1      96.135 118.804 148.160  0.00  0.00    -0.263 NA
ATOM      9  C2  F11     1      96.037 117.464 148.038  0.00  0.00    +0.119 A 
ATOM     10  C3  F11     1      96.563 116.539 148.978  0.00  0.00    +0.000 A 
ATOM     11  C11 F11     1      97.223 117.092 150.105  0.00  0.00    +0.011 A 
ATOM     12  C12 F11     1      97.323 118.486 150.237  0.00  0.00    +0.020 A 
ENDBRANCH   1  10
BRANCH   5  13
ATOM     13  O1  F11     1      94.509 112.699 146.674  0.00  0.00    -0.495 OA
ATOM     14  C9  F11     1      93.249 113.344 146.417  0.00  0.00    +0.277 C 
ENDBRANCH   5  13
TORSDOF 2
ENDMDL
MODEL 3
REMARK VINA RESULT:    -7.584      2.927      5.824
REMARK INTER + INTRA:          -8.696
REMARK INTER:                  -8.481
REMARK INTRA:                  -0.215
REMARK UNBOUND:                -0.225
REMARK  Name = ligands_pdb/F3_CHEMBL422577.pdb
REMARK  3 active torsions:
REMARK  status: ('A' for Active; 'I' for Inactive)
REMARK    1  A    between atoms: C3_6  and  C4_7
REMARK    2  A    between atoms: C8_14  and  O1_15
REMARK    3  A    between atoms: O1_15  and  C9_16
REMARK                            x       y       z     vdW  Elec       q    Type
REMARK                         _______ _______ _______ _____ _____    ______ ____
ROOT
ATOM      1  C4  F11     1      95.855 115.112 148.154  0.00  0.00    -0.013 A 
ATOM      2  C5  F11     1      95.178 114.912 146.925  0.00  0.00    +0.009 A 
ATOM      3  C6  F11     1      94.775 113.630 146.517  0.00  0.00    +0.004 A 
ATOM      4  C7  F11     1      95.039 112.515 147.326  0.00  0.00    +0.045 A 
ATOM      5  C8  F11     1      95.712 112.683 148.552  0.00  0.00    +0.121 A 
ATOM      6  C10 F11     1      96.110 113.969 148.954  0.00  0.00    +0.054 A 
ENDROOT
BRANCH   1  10
ATOM      7  C1  F11     1      97.039 119.061 149.323  0.00  0.00    +0.111 A 
ATOM      8  N1  F11     1      96.367 118.888 148.169  0.00  0.00    -0.263 NA
ATOM      9  C2  F11     1      96.002 117.638 147.821  0.00  0.00    +0.119 A 
ATOM     10  C3  F11     1      96.285 116.481 148.594  0.00  0.00    +0.000 A 
ATOM     11  C11 F11     1      96.995 116.692 149.804  0.00  0.00    +0.011 A 
ATOM     12  C12 F11     1      97.374 117.993 150.171  0.00  0.00    +0.020 A 
ENDBRANCH   1  10
BRANCH   5  13
ATOM     13  O1  F11     1      96.006 111.628 149.390  0.00  0.00    -0.495 OA
ATOM     14  C9  F11     1      95.499 110.296 149.192  0.00  0.00    +0.277 C 
ENDBRANCH   5  13
TORSDOF 2
ENDMDL
MODEL 4
REMARK VINA RESULT:    -7.226      2.774      5.094
REMARK INTER + INTRA:          -8.297
REMARK INTER:                  -8.052
REMARK INTRA:                  -0.244
REMARK UNBOUND:                -0.225
REMARK  Name = ligands_pdb/F3_CHEMBL422577.pdb
REMARK  3 active torsions:
REMARK  status: ('A' for Active; 'I' for Inactive)
REMARK    1  A    between atoms: C3_6  and  C4_7
REMARK    2  A    between atoms: C8_14  and  O1_15
REMARK    3  A    between atoms: O1_15  and  C9_16
REMARK                            x       y       z     vdW  Elec       q    Type
REMARK                         _______ _______ _______ _____ _____    ______ ____
ROOT
ATOM      1  C4  F11     1      96.541 115.711 148.904  0.00  0.00    -0.013 A 
ATOM      2  C5  F11     1      97.194 115.876 150.151  0.00  0.00    +0.009 A 
ATOM      3  C6  F11     1      97.624 114.769 150.900  0.00  0.00    +0.004 A 
ATOM      4  C7  F11     1      97.410 113.467 150.422  0.00  0.00    +0.045 A 
ATOM      5  C8  F11     1      96.763 113.272 149.187  0.00  0.00    +0.121 A 
ATOM      6  C10 F11     1      96.338 114.385 148.443  0.00  0.00    +0.054 A 
ENDROOT
BRANCH   1  10
ATOM      7  C1  F11     1      95.217 119.020 146.525  0.00  0.00    +0.111 A 
ATOM      8  N1  F11     1      95.259 117.790 145.979  0.00  0.00    -0.263 NA
ATOM      9  C2  F11     1      95.677 116.763 146.746  0.00  0.00    +0.119 A 
ATOM     10  C3  F11     1      96.083 116.893 148.100  0.00  0.00    +0.000 A 
ATOM     11  C11 F11     1      96.031 118.200 148.649  0.00  0.00    +0.011 A 
ATOM     12  C12 F11     1      95.593 119.272 147.855  0.00  0.00    +0.020 A 
ENDBRANCH   1  10
BRANCH   5  13
ATOM     13  O1  F11     1      96.520 112.019 148.664  0.00  0.00    -0.495 OA
ATOM     14  C9  F11     1      95.413 111.728 147.792  0.00  0.00    +0.277 C 
ENDBRANCH   5  13
TORSDOF 2
ENDMDL
MODEL 5
REMARK VINA RESULT:    -7.097      3.291      5.273
REMARK INTER + INTRA:          -8.153
REMARK INTER:                  -7.956
REMARK INTRA:                  -0.196
REMARK UNBOUND:                -0.225
REMARK  Name = ligands_pdb/F3_CHEMBL422577.pdb
REMARK  3 active torsions:
REMARK  status: ('A' for Active; 'I' for Inactive)
REMARK    1  A    between atoms: C3_6  and  C4_7
REMARK    2  A    between atoms: C8_14  and  O1_15
REMARK    3  A    between atoms: O1_15  and  C9_16
REMARK                            x       y       z     vdW  Elec       q    Type
REMARK                         _______ _______ _______ _____ _____    ______ ____
ROOT
ATOM      1  C4  F11     1      96.451 118.004 147.813  0.00  0.00    -0.013 A 
ATOM      2  C5  F11     1      96.715 118.827 148.937  0.00  0.00    +0.009 A 
ATOM      3  C6  F11     1      97.214 118.287 150.133  0.00  0.00    +0.004 A 
ATOM      4  C7  F11     1      97.460 116.909 150.238  0.00  0.00    +0.045 A 
ATOM      5  C8  F11     1      97.206 116.067 149.139  0.00  0.00    +0.121 A 
ATOM      6  C10 F11     1      96.709 116.616 147.945  0.00  0.00    +0.054 A 
ENDROOT
BRANCH   1  10
ATOM      7  C1  F11     1      94.847 119.674 144.207  0.00  0.00    +0.111 A 
ATOM      8  N1  F11     1      94.121 119.730 145.340  0.00  0.00    -0.263 NA
ATOM      9  C2  F11     1      94.646 119.201 146.464  0.00  0.00    +0.119 A 
ATOM     10  C3  F11     1      95.920 118.579 146.532  0.00  0.00    +0.000 A 
ATOM     11  C11 F11     1      96.662 118.532 145.324  0.00  0.00    +0.011 A 
ATOM     12  C12 F11     1      96.121 119.085 144.153  0.00  0.00    +0.020 A 
ENDBRANCH   1  10
BRANCH   5  13
ATOM     13  O1  F11     1      97.422 114.705 149.179  0.00  0.00    -0.495 OA
ATOM     14  C9  F11     1      97.356 113.930 150.389  0.00  0.00    +0.277 C 
ENDBRANCH   5  13
TORSDOF 2
ENDMDL
MODEL 6
REMARK VINA RESULT:    -6.548      1.057      2.449
REMARK INTER + INTRA:          -7.538
REMARK INTER:                  -7.293
REMARK INTRA:                  -0.246
REMARK UNBOUND:                -0.225
REMARK  Name = ligands_pdb/F3_CHEMBL422577.pdb
REMARK  3 active torsions:
REMARK  status: ('A' for Active; 'I' for Inactive)
REMARK    1  A    between atoms: C3_6  and  C4_7
REMARK    2  A    between atoms: C8_14  and  O1_15
REMARK    3  A    between atoms: O1_15  and  C9_16
REMARK                            x       y       z     vdW  Elec       q    Type
REMARK                         _______ _______ _______ _____ _____    ______ ____
ROOT
ATOM      1  C4  F11     1      95.703 115.897 147.245  0.00  0.00    -0.013 A 
ATOM      2  C5  F11     1      95.228 116.332 145.982  0.00  0.00    +0.009 A 
ATOM      3  C6  F11     1      95.267 117.688 145.618  0.00  0.00    +0.004 A 
ATOM      4  C7  F11     1      95.780 118.644 146.507  0.00  0.00    +0.045 A 
ATOM      5  C8  F11     1      96.258 118.241 147.769  0.00  0.00    +0.121 A 
ATOM      6  C10 F11     1      96.217 116.883 148.125  0.00  0.00    +0.054 A 
ENDROOT
BRANCH   1  10
ATOM      7  C1  F11     1      95.664 111.783 148.441  0.00  0.00    +0.111 A 
ATOM      8  N1  F11     1      96.419 112.662 149.127  0.00  0.00    -0.263 NA
ATOM      9  C2  F11     1      96.415 113.952 148.735  0.00  0.00    +0.119 A 
ATOM     10  C3  F11     1      95.665 114.448 147.636  0.00  0.00    +0.000 A 
ATOM     11  C11 F11     1      94.881 113.500 146.931  0.00  0.00    +0.011 A 
ATOM     12  C12 F11     1      94.880 112.157 147.338  0.00  0.00    +0.020 A 
ENDBRANCH   1  10
BRANCH   5  13
ATOM     13  O1  F11     1      96.770 119.132 148.690  0.00  0.00    -0.495 OA
ATOM     14  C9  F11     1      97.096 118.769 150.043  0.00  0.00    +0.277 C 
ENDBRANCH   5  13
TORSDOF 2
ENDMDL
MODEL 7
REMARK VINA RESULT:    -6.494      2.891      5.338
REMARK INTER + INTRA:          -7.478
REMARK INTER:                  -7.247
REMARK INTRA:                  -0.232
REMARK UNBOUND:                -0.225
REMARK  Name = ligands_pdb/F3_CHEMBL422577.pdb
REMARK  3 active torsions:
REMARK  status: ('A' for Active; 'I' for Inactive)
REMARK    1  A    between atoms: C3_6  and  C4_7
REMARK    2  A    between atoms: C8_14  and  O1_15
REMARK    3  A    between atoms: O1_15  and  C9_16
REMARK                            x       y       z     vdW  Elec       q    Type
REMARK                         _______ _______ _______ _____ _____    ______ ____
ROOT
ATOM      1  C4  F11     1      95.934 115.320 147.631  0.00  0.00    -0.013 A 
ATOM      2  C5  F11     1      95.209 114.191 147.172  0.00  0.00    +0.009 A 
ATOM      3  C6  F11     1      95.449 112.910 147.695  0.00  0.00    +0.004 A 
ATOM      4  C7  F11     1      96.422 112.724 148.689  0.00  0.00    +0.045 A 
ATOM      5  C8  F11     1      97.158 113.826 149.164  0.00  0.00    +0.121 A 
ATOM      6  C10 F11     1      96.911 115.104 148.636  0.00  0.00    +0.054 A 
ENDROOT
BRANCH   1  10
ATOM      7  C1  F11     1      95.239 119.275 146.138  0.00  0.00    +0.111 A 
ATOM      8  N1  F11     1      95.736 119.117 147.379  0.00  0.00    -0.263 NA
ATOM      9  C2  F11     1      95.950 117.863 147.828  0.00  0.00    +0.119 A 
ATOM     10  C3  F11     1      95.678 116.691 147.076  0.00  0.00    +0.000 A 
ATOM     11  C11 F11     1      95.154 116.887 145.773  0.00  0.00    +0.011 A 
ATOM     12  C12 F11     1      94.934 118.191 145.300  0.00  0.00    +0.020 A 
ENDBRANCH   1  10
BRANCH   5  13
ATOM     13  O1  F11     1      98.130 113.708 150.136  0.00  0.00    -0.495 OA
ATOM     14  C9  F11     1      97.962 114.184 151.483  0.00  0.00    +0.277 C 
ENDBRANCH   5  13
TORSDOF 2
ENDMDL
MODEL 8
REMARK VINA RESULT:    -6.476      2.706      4.823
REMARK INTER + INTRA:          -7.459
REMARK INTER:                  -7.260
REMARK INTRA:                  -0.199
REMARK UNBOUND:                -0.225
REMARK  Name = ligands_pdb/F3_CHEMBL422577.pdb
REMARK  3 active torsions:
REMARK  status: ('A' for Active; 'I' for Inactive)
REMARK    1  A    between atoms: C3_6  and  C4_7
REMARK    2  A    between atoms: C8_14  and  O1_15
REMARK    3  A    between atoms: O1_15  and  C9_16
REMARK                            x       y       z     vdW  Elec       q    Type
REMARK                         _______ _______ _______ _____ _____    ______ ____
ROOT
ATOM      1  C4  F11     1      95.915 118.594 146.490  0.00  0.00    -0.013 A 
ATOM      2  C5  F11     1      94.634 119.190 146.368  0.00  0.00    +0.009 A 
ATOM      3  C6  F11     1      94.197 119.734 145.150  0.00  0.00    +0.004 A 
ATOM      4  C7  F11     1      95.030 119.699 144.021  0.00  0.00    +0.045 A 
ATOM      5  C8  F11     1      96.308 119.115 144.112  0.00  0.00    +0.121 A 
ATOM      6  C10 F11     1      96.737 118.571 145.334  0.00  0.00    +0.054 A 
ENDROOT
BRANCH   1  10
ATOM      7  C1  F11     1      97.236 116.826 150.162  0.00  0.00    +0.111 A 
ATOM      8  N1  F11     1      96.836 116.029 149.153  0.00  0.00    -0.263 NA
ATOM      9  C2  F11     1      96.426 116.607 148.005  0.00  0.00    +0.119 A 
ATOM     10  C3  F11     1      96.384 118.009 147.790  0.00  0.00    +0.000 A 
ATOM     11  C11 F11     1      96.809 118.824 148.870  0.00  0.00    +0.011 A 
ATOM     12  C12 F11     1      97.240 118.227 150.065  0.00  0.00    +0.020 A 
ENDBRANCH   1  10
BRANCH   5  13
ATOM     13  O1  F11     1      97.176 119.052 143.041  0.00  0.00    -0.495 OA
ATOM     14  C9  F11     1      97.407 120.154 142.146  0.00  0.00    +0.277 C 
ENDBRANCH   5  13
TORSDOF 2
ENDMDL
MODEL 9
REMARK VINA RESULT:    -6.475      1.489      2.488
REMARK INTER + INTRA:          -7.457
REMARK INTER:                  -7.239
REMARK INTRA:                  -0.218
REMARK UNBOUND:                -0.225
REMARK  Name = ligands_pdb/F3_CHEMBL422577.pdb
REMARK  3 active torsions:
REMARK  status: ('A' for Active; 'I' for Inactive)
REMARK    1  A    between atoms: C3_6  and  C4_7
REMARK    2  A    between atoms: C8_14  and  O1_15
REMARK    3  A    between atoms: O1_15  and  C9_16
REMARK                            x       y       z     vdW  Elec       q    Type
REMARK                         _______ _______ _______ _____ _____    ______ ____
ROOT
ATOM      1  C4  F11     1      95.995 116.683 147.739  0.00  0.00    -0.013 A 
ATOM      2  C5  F11     1      95.964 117.809 148.600  0.00  0.00    +0.009 A 
ATOM      3  C6  F11     1      95.632 119.085 148.118  0.00  0.00    +0.004 A 
ATOM      4  C7  F11     1      95.324 119.270 146.762  0.00  0.00    +0.045 A 
ATOM      5  C8  F11     1      95.349 118.170 145.882  0.00  0.00    +0.121 A 
ATOM      6  C10 F11     1      95.680 116.897 146.373  0.00  0.00    +0.054 A 
ENDROOT
BRANCH   1  10
ATOM      7  C1  F11     1      96.918 112.743 149.149  0.00  0.00    +0.111 A 
ATOM      8  N1  F11     1      95.866 112.920 148.327  0.00  0.00    -0.263 NA
ATOM      9  C2  F11     1      95.594 114.168 147.893  0.00  0.00    +0.119 A 
ATOM     10  C3  F11     1      96.347 115.317 148.252  0.00  0.00    +0.000 A 
ATOM     11  C11 F11     1      97.448 115.102 149.120  0.00  0.00    +0.011 A 
ATOM     12  C12 F11     1      97.736 113.804 149.571  0.00  0.00    +0.020 A 
ENDBRANCH   1  10
BRANCH   5  13
ATOM     13  O1  F11     1      95.061 118.286 144.538  0.00  0.00    -0.495 OA
ATOM     14  C9  F11     1      96.069 118.452 143.525  0.00  0.00    +0.277 C 
ENDBRANCH   5  13
TORSDOF 2
ENDMDL
MODEL 10
REMARK VINA RESULT:    -6.306      2.308      3.866
REMARK INTER + INTRA:          -7.268
REMARK INTER:                  -7.047
REMARK INTRA:                  -0.221
REMARK UNBOUND:                -0.225
REMARK  Name = ligands_pdb/F3_CHEMBL422577.pdb
REMARK  3 active torsions:
REMARK  status: ('A' for Active; 'I' for Inactive)
REMARK    1  A    between atoms: C3_6  and  C4_7
REMARK    2  A    between atoms: C8_14  and  O1_15
REMARK    3  A    between atoms: O1_15  and  C9_16
REMARK                            x       y       z     vdW  Elec       q    Type
REMARK                         _______ _______ _______ _____ _____    ______ ____
ROOT
ATOM      1  C4  F11     1      95.654 113.674 147.917  0.00  0.00    -0.013 A 
ATOM      2  C5  F11     1      95.329 114.717 147.014  0.00  0.00    +0.009 A 
ATOM      3  C6  F11     1      95.715 116.043 147.264  0.00  0.00    +0.004 A 
ATOM      4  C7  F11     1      96.436 116.362 148.425  0.00  0.00    +0.045 A 
ATOM      5  C8  F11     1      96.772 115.347 149.341  0.00  0.00    +0.121 A 
ATOM      6  C10 F11     1      96.383 114.022 149.082  0.00  0.00    +0.054 A 
ENDROOT
BRANCH   1  10
ATOM      7  C1  F11     1      94.403 109.658 147.099  0.00  0.00    +0.111 A 
ATOM      8  N1  F11     1      93.697 110.685 146.588  0.00  0.00    -0.263 NA
ATOM      9  C2  F11     1      94.110 111.941 146.856  0.00  0.00    +0.119 A 
ATOM     10  C3  F11     1      95.244 112.254 147.651  0.00  0.00    +0.000 A 
ATOM     11  C11 F11     1      95.967 111.153 148.177  0.00  0.00    +0.011 A 
ATOM     12  C12 F11     1      95.542 109.844 147.897  0.00  0.00    +0.020 A 
ENDBRANCH   1  10
BRANCH   5  13
ATOM     13  O1  F11     1      97.475 115.595 150.503  0.00  0.00    -0.495 OA
ATOM     14  C9  F11     1      97.902 114.558 151.404  0.00  0.00    +0.277 C 
ENDBRANCH   5  13
TORSDOF 2
ENDMDL
