MODEL 1
REMARK VINA RESULT:    -8.152      0.000      0.000
REMARK INTER + INTRA:          -9.908
REMARK INTER:                  -9.582
REMARK INTRA:                  -0.326
REMARK UNBOUND:                -0.326
REMARK  Name = ligands_pdb/F3_CHEMBL417498.pdb
REMARK  5 active torsions:
REMARK  status: ('A' for Active; 'I' for Inactive)
REMARK    1  A    between atoms: C3_6  and  C4_7
REMARK    2  A    between atoms: C7_12  and  O1_13
REMARK    3  A    between atoms: O1_13  and  C8_14
REMARK    4  A    between atoms: C9_18  and  O2_19
REMARK    5  A    between atoms: O2_19  and  C10_20
REMARK                            x       y       z     vdW  Elec       q    Type
REMARK                         _______ _______ _______ _____ _____    ______ ____
ROOT
ATOM      1  C4  F09     1      96.442 115.034 148.612  0.00  0.00    -0.013 A 
ATOM      2  C5  F09     1      97.288 114.098 149.254  0.00  0.00    +0.012 A 
ATOM      3  C6  F09     1      97.154 112.720 149.029  0.00  0.00    +0.050 A 
ATOM      4  C7  F09     1      96.164 112.232 148.153  0.00  0.00    +0.162 A 
ATOM      5  C9  F09     1      95.305 113.144 147.502  0.00  0.00    +0.162 A 
ATOM      6  C11 F09     1      95.451 114.527 147.733  0.00  0.00    +0.058 A 
ENDROOT
BRANCH   1  10
ATOM      7  C1  F09     1      96.814 119.260 149.202  0.00  0.00    +0.111 A 
ATOM      8  N1  F09     1      96.242 118.801 148.073  0.00  0.00    -0.263 NA
ATOM      9  C2  F09     1      96.134 117.467 147.907  0.00  0.00    +0.119 A 
ATOM     10  C3  F09     1      96.589 116.509 148.851  0.00  0.00    +0.000 A 
ATOM     11  C12 F09     1      97.188 117.021 150.029  0.00  0.00    +0.011 A 
ATOM     12  C13 F09     1      97.299 118.409 150.206  0.00  0.00    +0.020 A 
ENDBRANCH   1  10
BRANCH   4  13
ATOM     13  O1  F09     1      96.008 110.878 147.914  0.00  0.00    -0.491 OA
ATOM     14  C8  F09     1      95.294 109.987 148.788  0.00  0.00    +0.277 C 
ENDBRANCH   4  13
BRANCH   5  15
ATOM     15  O2  F09     1      94.335 112.649 146.648  0.00  0.00    -0.491 OA
ATOM     16  C10 F09     1      93.138 113.363 146.289  0.00  0.00    +0.277 C 
ENDBRANCH   5  15
TORSDOF 3
ENDMDL
MODEL 2
REMARK VINA RESULT:    -7.677      3.052      5.841
REMARK INTER + INTRA:          -9.349
REMARK INTER:                  -9.163
REMARK INTRA:                  -0.186
REMARK UNBOUND:                -0.326
REMARK  Name = ligands_pdb/F3_CHEMBL417498.pdb
REMARK  5 active torsions:
REMARK  status: ('A' for Active; 'I' for Inactive)
REMARK    1  A    between atoms: C3_6  and  C4_7
REMARK    2  A    between atoms: C7_12  and  O1_13
REMARK    3  A    between atoms: O1_13  and  C8_14
REMARK    4  A    between atoms: C9_18  and  O2_19
REMARK    5  A    between atoms: O2_19  and  C10_20
REMARK                            x       y       z     vdW  Elec       q    Type
REMARK                         _______ _______ _______ _____ _____    ______ ____
ROOT
ATOM      1  C4  F09     1      96.139 113.795 148.245  0.00  0.00    -0.013 A 
ATOM      2  C5  F09     1      97.259 113.849 149.109  0.00  0.00    +0.012 A 
ATOM      3  C6  F09     1      97.828 115.073 149.490  0.00  0.00    +0.050 A 
ATOM      4  C7  F09     1      97.295 116.287 149.015  0.00  0.00    +0.162 A 
ATOM      5  C9  F09     1      96.179 116.262 148.149  0.00  0.00    +0.162 A 
ATOM      6  C11 F09     1      95.614 115.025 147.775  0.00  0.00    +0.058 A 
ENDROOT
BRANCH   1  10
ATOM      7  C1  F09     1      94.325 110.107 147.039  0.00  0.00    +0.111 A 
ATOM      8  N1  F09     1      93.771 111.270 146.652  0.00  0.00    -0.263 NA
ATOM      9  C2  F09     1      94.358 112.421 147.041  0.00  0.00    +0.119 A 
ATOM     10  C3  F09     1      95.529 112.484 147.841  0.00  0.00    +0.000 A 
ATOM     11  C12 F09     1      96.090 111.244 148.236  0.00  0.00    +0.011 A 
ATOM     12  C13 F09     1      95.483 110.045 147.829  0.00  0.00    +0.020 A 
ENDBRANCH   1  10
BRANCH   4  13
ATOM     13  O1  F09     1      97.836 117.509 149.372  0.00  0.00    -0.491 OA
ATOM     14  C8  F09     1      97.235 118.404 150.324  0.00  0.00    +0.277 C 
ENDBRANCH   4  13
BRANCH   5  15
ATOM     15  O2  F09     1      95.669 117.463 147.687  0.00  0.00    -0.491 OA
ATOM     16  C10 F09     1      96.140 118.136 146.505  0.00  0.00    +0.277 C 
ENDBRANCH   5  15
TORSDOF 3
ENDMDL
MODEL 3
REMARK VINA RESULT:    -6.604      1.140      2.336
REMARK INTER + INTRA:          -8.088
REMARK INTER:                  -8.225
REMARK INTRA:                   0.137
REMARK UNBOUND:                -0.326
REMARK  Name = ligands_pdb/F3_CHEMBL417498.pdb
REMARK  5 active torsions:
REMARK  status: ('A' for Active; 'I' for Inactive)
REMARK    1  A    between atoms: C3_6  and  C4_7
REMARK    2  A    between atoms: C7_12  and  O1_13
REMARK    3  A    between atoms: O1_13  and  C8_14
REMARK    4  A    between atoms: C9_18  and  O2_19
REMARK    5  A    between atoms: O2_19  and  C10_20
REMARK                            x       y       z     vdW  Elec       q    Type
REMARK                         _______ _______ _______ _____ _____    ______ ____
ROOT
ATOM      1  C4  F09     1      95.839 114.438 148.272  0.00  0.00    -0.013 A 
ATOM      2  C5  F09     1      94.988 114.279 147.152  0.00  0.00    +0.012 A 
ATOM      3  C6  F09     1      94.519 113.014 146.767  0.00  0.00    +0.050 A 
ATOM      4  C7  F09     1      94.890 111.864 147.490  0.00  0.00    +0.162 A 
ATOM      5  C9  F09     1      95.740 111.994 148.610  0.00  0.00    +0.162 A 
ATOM      6  C11 F09     1      96.203 113.272 148.990  0.00  0.00    +0.058 A 
ENDROOT
BRANCH   1  10
ATOM      7  C1  F09     1      97.216 118.345 149.364  0.00  0.00    +0.111 A 
ATOM      8  N1  F09     1      96.525 118.186 148.220  0.00  0.00    -0.263 NA
ATOM      9  C2  F09     1      96.100 116.948 147.895  0.00  0.00    +0.119 A 
ATOM     10  C3  F09     1      96.337 115.793 148.685  0.00  0.00    +0.000 A 
ATOM     11  C12 F09     1      97.068 115.989 149.883  0.00  0.00    +0.011 A 
ATOM     12  C13 F09     1      97.510 117.277 150.226  0.00  0.00    +0.020 A 
ENDBRANCH   1  10
BRANCH   4  13
ATOM     13  O1  F09     1      94.444 110.604 147.132  0.00  0.00    -0.491 OA
ATOM     14  C8  F09     1      95.311 109.542 146.694  0.00  0.00    +0.277 C 
ENDBRANCH   4  13
BRANCH   5  15
ATOM     15  O2  F09     1      96.099 110.854 149.309  0.00  0.00    -0.491 OA
ATOM     16  C10 F09     1      95.224 110.156 150.213  0.00  0.00    +0.277 C 
ENDBRANCH   5  15
TORSDOF 3
ENDMDL
MODEL 4
REMARK VINA RESULT:    -6.590      1.707      3.222
REMARK INTER + INTRA:          -8.071
REMARK INTER:                  -7.756
REMARK INTRA:                  -0.315
REMARK UNBOUND:                -0.326
REMARK  Name = ligands_pdb/F3_CHEMBL417498.pdb
REMARK  5 active torsions:
REMARK  status: ('A' for Active; 'I' for Inactive)
REMARK    1  A    between atoms: C3_6  and  C4_7
REMARK    2  A    between atoms: C7_12  and  O1_13
REMARK    3  A    between atoms: O1_13  and  C8_14
REMARK    4  A    between atoms: C9_18  and  O2_19
REMARK    5  A    between atoms: O2_19  and  C10_20
REMARK                            x       y       z     vdW  Elec       q    Type
REMARK                         _______ _______ _______ _____ _____    ______ ____
ROOT
ATOM      1  C4  F09     1      95.648 115.059 147.468  0.00  0.00    -0.013 A 
ATOM      2  C5  F09     1      95.004 114.000 146.783  0.00  0.00    +0.012 A 
ATOM      3  C6  F09     1      95.001 112.695 147.295  0.00  0.00    +0.050 A 
ATOM      4  C7  F09     1      95.646 112.404 148.514  0.00  0.00    +0.162 A 
ATOM      5  C9  F09     1      96.298 113.441 149.217  0.00  0.00    +0.162 A 
ATOM      6  C11 F09     1      96.291 114.750 148.693  0.00  0.00    +0.058 A 
ENDROOT
BRANCH   1  10
ATOM      7  C1  F09     1      95.695 119.079 145.990  0.00  0.00    +0.111 A 
ATOM      8  N1  F09     1      96.219 118.817 147.202  0.00  0.00    -0.263 NA
ATOM      9  C2  F09     1      96.195 117.544 147.648  0.00  0.00    +0.119 A 
ATOM     10  C3  F09     1      95.647 116.456 146.919  0.00  0.00    +0.000 A 
ATOM     11  C12 F09     1      95.101 116.761 145.648  0.00  0.00    +0.011 A 
ATOM     12  C13 F09     1      95.127 118.084 145.179  0.00  0.00    +0.020 A 
ENDBRANCH   1  10
BRANCH   4  13
ATOM     13  O1  F09     1      95.660 111.125 149.042  0.00  0.00    -0.491 OA
ATOM     14  C8  F09     1      95.401 109.938 148.273  0.00  0.00    +0.277 C 
ENDBRANCH   4  13
BRANCH   5  15
ATOM     15  O2  F09     1      96.930 113.139 150.410  0.00  0.00    -0.491 OA
ATOM     16  C10 F09     1      97.794 114.048 151.115  0.00  0.00    +0.277 C 
ENDBRANCH   5  15
TORSDOF 3
ENDMDL
MODEL 5
REMARK VINA RESULT:    -6.563      3.293      6.004
REMARK INTER + INTRA:          -8.040
REMARK INTER:                  -7.792
REMARK INTRA:                  -0.248
REMARK UNBOUND:                -0.326
REMARK  Name = ligands_pdb/F3_CHEMBL417498.pdb
REMARK  5 active torsions:
REMARK  status: ('A' for Active; 'I' for Inactive)
REMARK    1  A    between atoms: C3_6  and  C4_7
REMARK    2  A    between atoms: C7_12  and  O1_13
REMARK    3  A    between atoms: O1_13  and  C8_14
REMARK    4  A    between atoms: C9_18  and  O2_19
REMARK    5  A    between atoms: O2_19  and  C10_20
REMARK                            x       y       z     vdW  Elec       q    Type
REMARK                         _______ _______ _______ _____ _____    ______ ____
ROOT
ATOM      1  C4  F09     1      96.286 115.429 148.547  0.00  0.00    -0.013 A 
ATOM      2  C5  F09     1      96.876 115.836 149.768  0.00  0.00    +0.012 A 
ATOM      3  C6  F09     1      97.196 117.180 150.012  0.00  0.00    +0.050 A 
ATOM      4  C7  F09     1      96.938 118.163 149.037  0.00  0.00    +0.162 A 
ATOM      5  C9  F09     1      96.352 117.785 147.809  0.00  0.00    +0.162 A 
ATOM      6  C11 F09     1      96.032 116.431 147.577  0.00  0.00    +0.058 A 
ENDROOT
BRANCH   1  10
ATOM      7  C1  F09     1      95.348 111.299 147.904  0.00  0.00    +0.111 A 
ATOM      8  N1  F09     1      96.033 111.655 149.006  0.00  0.00    -0.263 NA
ATOM      9  C2  F09     1      96.318 112.960 149.190  0.00  0.00    +0.119 A 
ATOM     10  C3  F09     1      95.941 113.991 148.290  0.00  0.00    +0.000 A 
ATOM     11  C12 F09     1      95.222 113.588 147.137  0.00  0.00    +0.011 A 
ATOM     12  C13 F09     1      94.922 112.230 146.943  0.00  0.00    +0.020 A 
ENDBRANCH   1  10
BRANCH   4  13
ATOM     13  O1  F09     1      97.245 119.496 149.249  0.00  0.00    -0.491 OA
ATOM     14  C8  F09     1      96.293 120.475 149.702  0.00  0.00    +0.277 C 
ENDBRANCH   4  13
BRANCH   5  15
ATOM     15  O2  F09     1      96.108 118.762 146.860  0.00  0.00    -0.491 OA
ATOM     16  C10 F09     1      95.013 118.723 145.928  0.00  0.00    +0.277 C 
ENDBRANCH   5  15
TORSDOF 3
ENDMDL
MODEL 6
REMARK VINA RESULT:    -6.444      4.290      6.509
REMARK INTER + INTRA:          -7.900
REMARK INTER:                  -7.587
REMARK INTRA:                  -0.313
REMARK UNBOUND:                -0.326
REMARK  Name = ligands_pdb/F3_CHEMBL417498.pdb
REMARK  5 active torsions:
REMARK  status: ('A' for Active; 'I' for Inactive)
REMARK    1  A    between atoms: C3_6  and  C4_7
REMARK    2  A    between atoms: C7_12  and  O1_13
REMARK    3  A    between atoms: O1_13  and  C8_14
REMARK    4  A    between atoms: C9_18  and  O2_19
REMARK    5  A    between atoms: O2_19  and  C10_20
REMARK                            x       y       z     vdW  Elec       q    Type
REMARK                         _______ _______ _______ _____ _____    ______ ____
ROOT
ATOM      1  C4  F09     1      95.745 118.539 146.471  0.00  0.00    -0.013 A 
ATOM      2  C5  F09     1      94.485 119.179 146.390  0.00  0.00    +0.012 A 
ATOM      3  C6  F09     1      93.984 119.653 145.168  0.00  0.00    +0.050 A 
ATOM      4  C7  F09     1      94.732 119.504 143.984  0.00  0.00    +0.162 A 
ATOM      5  C9  F09     1      95.994 118.872 144.036  0.00  0.00    +0.162 A 
ATOM      6  C11 F09     1      96.485 118.396 145.270  0.00  0.00    +0.058 A 
ENDROOT
BRANCH   1  10
ATOM      7  C1  F09     1      97.256 116.986 150.166  0.00  0.00    +0.111 A 
ATOM      8  N1  F09     1      96.900 116.131 149.189  0.00  0.00    -0.263 NA
ATOM      9  C2  F09     1      96.428 116.641 148.033  0.00  0.00    +0.119 A 
ATOM     10  C3  F09     1      96.278 118.029 147.779  0.00  0.00    +0.000 A 
ATOM     11  C12 F09     1      96.657 118.906 148.825  0.00  0.00    +0.011 A 
ATOM     12  C13 F09     1      97.153 118.379 150.029  0.00  0.00    +0.020 A 
ENDBRANCH   1  10
BRANCH   4  13
ATOM     13  O1  F09     1      94.264 119.963 142.765  0.00  0.00    -0.491 OA
ATOM     14  C8  F09     1      93.312 119.253 141.954  0.00  0.00    +0.277 C 
ENDBRANCH   4  13
BRANCH   5  15
ATOM     15  O2  F09     1      96.718 118.736 142.865  0.00  0.00    -0.491 OA
ATOM     16  C10 F09     1      97.734 119.660 142.436  0.00  0.00    +0.277 C 
ENDBRANCH   5  15
TORSDOF 3
ENDMDL
MODEL 7
REMARK VINA RESULT:    -6.388      2.844      4.306
REMARK INTER + INTRA:          -7.835
REMARK INTER:                  -7.896
REMARK INTRA:                   0.061
REMARK UNBOUND:                -0.326
REMARK  Name = ligands_pdb/F3_CHEMBL417498.pdb
REMARK  5 active torsions:
REMARK  status: ('A' for Active; 'I' for Inactive)
REMARK    1  A    between atoms: C3_6  and  C4_7
REMARK    2  A    between atoms: C7_12  and  O1_13
REMARK    3  A    between atoms: O1_13  and  C8_14
REMARK    4  A    between atoms: C9_18  and  O2_19
REMARK    5  A    between atoms: O2_19  and  C10_20
REMARK                            x       y       z     vdW  Elec       q    Type
REMARK                         _______ _______ _______ _____ _____    ______ ____
ROOT
ATOM      1  C4  F09     1      96.171 117.740 147.413  0.00  0.00    -0.013 A 
ATOM      2  C5  F09     1      96.795 118.355 148.525  0.00  0.00    +0.012 A 
ATOM      3  C6  F09     1      97.096 117.628 149.686  0.00  0.00    +0.050 A 
ATOM      4  C7  F09     1      96.779 116.258 149.773  0.00  0.00    +0.162 A 
ATOM      5  C9  F09     1      96.154 115.620 148.680  0.00  0.00    +0.162 A 
ATOM      6  C11 F09     1      95.859 116.361 147.516  0.00  0.00    +0.058 A 
ENDROOT
BRANCH   1  10
ATOM      7  C1  F09     1      95.173 119.994 143.910  0.00  0.00    +0.111 A 
ATOM      8  N1  F09     1      94.323 119.988 144.953  0.00  0.00    -0.263 NA
ATOM      9  C2  F09     1      94.656 119.273 146.047  0.00  0.00    +0.119 A 
ATOM     10  C3  F09     1      95.853 118.519 146.169  0.00  0.00    +0.000 A 
ATOM     11  C12 F09     1      96.728 118.541 145.055  0.00  0.00    +0.011 A 
ATOM     12  C13 F09     1      96.385 119.288 143.916  0.00  0.00    +0.020 A 
ENDBRANCH   1  10
BRANCH   4  13
ATOM     13  O1  F09     1      97.063 115.517 150.907  0.00  0.00    -0.491 OA
ATOM     14  C8  F09     1      97.896 114.345 150.909  0.00  0.00    +0.277 C 
ENDBRANCH   4  13
BRANCH   5  15
ATOM     15  O2  F09     1      95.845 114.275 148.782  0.00  0.00    -0.491 OA
ATOM     16  C10 F09     1      95.348 113.478 147.693  0.00  0.00    +0.277 C 
ENDBRANCH   5  15
TORSDOF 3
ENDMDL
MODEL 8
REMARK VINA RESULT:    -6.199      3.349      5.791
REMARK INTER + INTRA:          -7.612
REMARK INTER:                  -7.673
REMARK INTRA:                   0.061
REMARK UNBOUND:                -0.326
REMARK  Name = ligands_pdb/F3_CHEMBL417498.pdb
REMARK  5 active torsions:
REMARK  status: ('A' for Active; 'I' for Inactive)
REMARK    1  A    between atoms: C3_6  and  C4_7
REMARK    2  A    between atoms: C7_12  and  O1_13
REMARK    3  A    between atoms: O1_13  and  C8_14
REMARK    4  A    between atoms: C9_18  and  O2_19
REMARK    5  A    between atoms: O2_19  and  C10_20
REMARK                            x       y       z     vdW  Elec       q    Type
REMARK                         _______ _______ _______ _____ _____    ______ ____
ROOT
ATOM      1  C4  F09     1      96.120 117.066 147.939  0.00  0.00    -0.013 A 
ATOM      2  C5  F09     1      95.717 118.317 148.466  0.00  0.00    +0.012 A 
ATOM      3  C6  F09     1      95.190 119.321 147.640  0.00  0.00    +0.050 A 
ATOM      4  C7  F09     1      95.050 119.105 146.255  0.00  0.00    +0.162 A 
ATOM      5  C9  F09     1      95.445 117.868 145.702  0.00  0.00    +0.162 A 
ATOM      6  C11 F09     1      95.971 116.865 146.544  0.00  0.00    +0.058 A 
ENDROOT
BRANCH   1  10
ATOM      7  C1  F09     1      97.740 114.074 150.541  0.00  0.00    +0.111 A 
ATOM      8  N1  F09     1      97.715 115.356 150.948  0.00  0.00    -0.263 NA
ATOM      9  C2  F09     1      97.200 116.283 150.114  0.00  0.00    +0.119 A 
ATOM     10  C3  F09     1      96.681 115.991 148.825  0.00  0.00    +0.000 A 
ATOM     11  C12 F09     1      96.721 114.634 148.422  0.00  0.00    +0.011 A 
ATOM     12  C13 F09     1      97.254 113.666 149.289  0.00  0.00    +0.020 A 
ENDBRANCH   1  10
BRANCH   4  13
ATOM     13  O1  F09     1      94.534 120.078 145.416  0.00  0.00    -0.491 OA
ATOM     14  C8  F09     1      93.315 119.926 144.668  0.00  0.00    +0.277 C 
ENDBRANCH   4  13
BRANCH   5  15
ATOM     15  O2  F09     1      95.305 117.673 144.340  0.00  0.00    -0.491 OA
ATOM     16  C10 F09     1      96.239 118.156 143.357  0.00  0.00    +0.277 C 
ENDBRANCH   5  15
TORSDOF 3
ENDMDL
MODEL 9
REMARK VINA RESULT:    -6.107     17.920     18.519
REMARK INTER + INTRA:          -7.504
REMARK INTER:                  -7.188
REMARK INTRA:                  -0.316
REMARK UNBOUND:                -0.326
REMARK  Name = ligands_pdb/F3_CHEMBL417498.pdb
REMARK  5 active torsions:
REMARK  status: ('A' for Active; 'I' for Inactive)
REMARK    1  A    between atoms: C3_6  and  C4_7
REMARK    2  A    between atoms: C7_12  and  O1_13
REMARK    3  A    between atoms: O1_13  and  C8_14
REMARK    4  A    between atoms: C9_18  and  O2_19
REMARK    5  A    between atoms: O2_19  and  C10_20
REMARK                            x       y       z     vdW  Elec       q    Type
REMARK                         _______ _______ _______ _____ _____    ______ ____
ROOT
ATOM      1  C4  F09     1     108.772 116.196 136.282  0.00  0.00    -0.013 A 
ATOM      2  C5  F09     1     109.311 116.891 137.391  0.00  0.00    +0.012 A 
ATOM      3  C6  F09     1     110.640 116.699 137.797  0.00  0.00    +0.050 A 
ATOM      4  C7  F09     1     111.475 115.800 137.106  0.00  0.00    +0.162 A 
ATOM      5  C9  F09     1     110.962 115.090 135.998  0.00  0.00    +0.162 A 
ATOM      6  C11 F09     1     109.625 115.294 135.597  0.00  0.00    +0.058 A 
ENDROOT
BRANCH   1  10
ATOM      7  C1  F09     1     104.745 116.769 134.941  0.00  0.00    +0.111 A 
ATOM      8  N1  F09     1     105.692 116.419 134.050  0.00  0.00    -0.263 NA
ATOM      9  C2  F09     1     106.953 116.243 134.494  0.00  0.00    +0.119 A 
ATOM     10  C3  F09     1     107.351 116.405 135.847  0.00  0.00    +0.000 A 
ATOM     11  C12 F09     1     106.334 116.775 136.762  0.00  0.00    +0.011 A 
ATOM     12  C13 F09     1     105.019 116.956 136.304  0.00  0.00    +0.020 A 
ENDBRANCH   1  10
BRANCH   4  13
ATOM     13  O1  F09     1     112.789 115.589 137.485  0.00  0.00    -0.491 OA
ATOM     14  C8  F09     1     113.234 115.571 138.853  0.00  0.00    +0.277 C 
ENDBRANCH   4  13
BRANCH   5  15
ATOM     15  O2  F09     1     111.794 114.207 135.332  0.00  0.00    -0.491 OA
ATOM     16  C10 F09     1     111.843 114.072 133.900  0.00  0.00    +0.277 C 
ENDBRANCH   5  15
TORSDOF 3
ENDMDL
MODEL 10
REMARK VINA RESULT:    -6.009      4.138      5.946
REMARK INTER + INTRA:          -7.389
REMARK INTER:                  -7.106
REMARK INTRA:                  -0.282
REMARK UNBOUND:                -0.326
REMARK  Name = ligands_pdb/F3_CHEMBL417498.pdb
REMARK  5 active torsions:
REMARK  status: ('A' for Active; 'I' for Inactive)
REMARK    1  A    between atoms: C3_6  and  C4_7
REMARK    2  A    between atoms: C7_12  and  O1_13
REMARK    3  A    between atoms: O1_13  and  C8_14
REMARK    4  A    between atoms: C9_18  and  O2_19
REMARK    5  A    between atoms: O2_19  and  C10_20
REMARK                            x       y       z     vdW  Elec       q    Type
REMARK                         _______ _______ _______ _____ _____    ______ ____
ROOT
ATOM      1  C4  F09     1      96.091 118.169 146.080  0.00  0.00    -0.013 A 
ATOM      2  C5  F09     1      97.026 118.810 145.232  0.00  0.00    +0.012 A 
ATOM      3  C6  F09     1      96.721 119.095 143.893  0.00  0.00    +0.050 A 
ATOM      4  C7  F09     1      95.467 118.744 143.356  0.00  0.00    +0.162 A 
ATOM      5  C9  F09     1      94.516 118.102 144.179  0.00  0.00    +0.162 A 
ATOM      6  C11 F09     1      94.833 117.823 145.525  0.00  0.00    +0.058 A 
ENDROOT
BRANCH   1  10
ATOM      7  C1  F09     1      97.012 117.206 150.151  0.00  0.00    +0.111 A 
ATOM      8  N1  F09     1      96.708 116.215 149.293  0.00  0.00    -0.263 NA
ATOM      9  C2  F09     1      96.422 116.539 148.015  0.00  0.00    +0.119 A 
ATOM     10  C3  F09     1      96.419 117.867 147.514  0.00  0.00    +0.000 A 
ATOM     11  C12 F09     1      96.741 118.891 148.439  0.00  0.00    +0.011 A 
ATOM     12  C13 F09     1      97.042 118.556 149.769  0.00  0.00    +0.020 A 
ENDBRANCH   1  10
BRANCH   4  13
ATOM     13  O1  F09     1      95.139 119.012 142.039  0.00  0.00    -0.491 OA
ATOM     14  C8  F09     1      95.399 118.109 140.950  0.00  0.00    +0.277 C 
ENDBRANCH   4  13
BRANCH   5  15
ATOM     15  O2  F09     1      93.290 117.760 143.636  0.00  0.00    -0.491 OA
ATOM     16  C10 F09     1      92.137 118.620 143.648  0.00  0.00    +0.277 C 
ENDBRANCH   5  15
TORSDOF 3
ENDMDL
