MODEL 1
REMARK VINA RESULT:    -8.493      0.000      0.000
REMARK INTER + INTRA:         -11.105
REMARK INTER:                 -10.478
REMARK INTRA:                  -0.627
REMARK UNBOUND:                -0.627
REMARK  Name = ligands_pdb/F3_CHEMBL281992.pdb
REMARK  4 active torsions:
REMARK  status: ('A' for Active; 'I' for Inactive)
REMARK    1  A    between atoms: C3_6  and  C4_7
REMARK    2  A    between atoms: C4_7  and  O2_9
REMARK    3  A    between atoms: O2_9  and  C5_10
REMARK    4  A    between atoms: C8_15  and  C9_16
REMARK                            x       y       z     vdW  Elec       q    Type
REMARK                         _______ _______ _______ _____ _____    ______ ____
ROOT
ATOM      1  C5  F05     1      95.033 119.584 143.770  0.00  0.00    +0.132 A 
ATOM      2  C6  F05     1      94.166 119.625 144.876  0.00  0.00    +0.047 A 
ATOM      3  C7  F05     1      94.593 119.144 146.123  0.00  0.00    +0.012 A 
ATOM      4  C8  F05     1      95.891 118.599 146.300  0.00  0.00    -0.018 A 
ATOM      5  C15 F05     1      96.740 118.553 145.165  0.00  0.00    +0.012 A 
ATOM      6  C16 F05     1      96.316 119.036 143.916  0.00  0.00    +0.047 A 
ENDROOT
BRANCH   4   7
ATOM      7  C9  F05     1      96.344 118.085 147.636  0.00  0.00    -0.018 A 
ATOM      8  C10 F05     1      96.431 116.693 147.898  0.00  0.00    +0.008 A 
ATOM      9  C11 F05     1      96.854 116.212 149.148  0.00  0.00    +0.001 A 
ATOM     10  C12 F05     1      97.203 117.112 150.167  0.00  0.00    +0.000 A 
ATOM     11  C13 F05     1      97.127 118.493 149.933  0.00  0.00    +0.001 A 
ATOM     12  C14 F05     1      96.702 118.973 148.683  0.00  0.00    +0.008 A 
ENDBRANCH   4   7
BRANCH   1  13
ATOM     13  O2  F05     1      94.641 120.028 142.528  0.00  0.00    -0.421 OA
BRANCH  13  14
ATOM     14  C4  F05     1      94.326 119.237 141.455  0.00  0.00    +0.364 C 
ATOM     15  O1  F05     1      93.331 118.530 141.404  0.00  0.00    -0.243 OA
BRANCH  14  19
ATOM     16  C1  F05     1      97.048 119.519 138.250  0.00  0.00    +0.130 A 
ATOM     17  N1  F05     1      97.248 118.538 139.153  0.00  0.00    -0.259 NA
ATOM     18  C2  F05     1      96.364 118.466 140.171  0.00  0.00    +0.145 A 
ATOM     19  C3  F05     1      95.281 119.363 140.296  0.00  0.00    +0.166 A 
ATOM     20  N2  F05     1      95.091 120.346 139.381  0.00  0.00    -0.245 NA
ATOM     21  C17 F05     1      95.974 120.421 138.364  0.00  0.00    +0.131 A 
ENDBRANCH  14  19
ENDBRANCH  13  14
ENDBRANCH   1  13
TORSDOF 4
ENDMDL
MODEL 2
REMARK VINA RESULT:    -8.455      0.102      1.499
REMARK INTER + INTRA:         -11.059
REMARK INTER:                 -10.436
REMARK INTRA:                  -0.623
REMARK UNBOUND:                -0.627
REMARK  Name = ligands_pdb/F3_CHEMBL281992.pdb
REMARK  4 active torsions:
REMARK  status: ('A' for Active; 'I' for Inactive)
REMARK    1  A    between atoms: C3_6  and  C4_7
REMARK    2  A    between atoms: C4_7  and  O2_9
REMARK    3  A    between atoms: O2_9  and  C5_10
REMARK    4  A    between atoms: C8_15  and  C9_16
REMARK                            x       y       z     vdW  Elec       q    Type
REMARK                         _______ _______ _______ _____ _____    ______ ____
ROOT
ATOM      1  C5  F05     1      95.034 119.530 143.713  0.00  0.00    +0.132 A 
ATOM      2  C6  F05     1      96.352 119.071 143.886  0.00  0.00    +0.047 A 
ATOM      3  C7  F05     1      96.782 118.627 145.146  0.00  0.00    +0.012 A 
ATOM      4  C8  F05     1      95.916 118.638 146.269  0.00  0.00    -0.018 A 
ATOM      5  C15 F05     1      94.597 119.122 146.072  0.00  0.00    +0.012 A 
ATOM      6  C16 F05     1      94.163 119.564 144.811  0.00  0.00    +0.047 A 
ENDROOT
BRANCH   4   7
ATOM      7  C9  F05     1      96.379 118.163 147.615  0.00  0.00    -0.018 A 
ATOM      8  C10 F05     1      96.645 119.077 148.667  0.00  0.00    +0.008 A 
ATOM      9  C11 F05     1      97.080 118.633 149.927  0.00  0.00    +0.001 A 
ATOM     10  C12 F05     1      97.257 117.261 150.167  0.00  0.00    +0.000 A 
ATOM     11  C13 F05     1      97.000 116.337 149.144  0.00  0.00    +0.001 A 
ATOM     12  C14 F05     1      96.567 116.783 147.884  0.00  0.00    +0.008 A 
ENDBRANCH   4   7
BRANCH   1  13
ATOM     13  O2  F05     1      94.585 119.991 142.496  0.00  0.00    -0.421 OA
BRANCH  13  14
ATOM     14  C4  F05     1      94.260 119.215 141.415  0.00  0.00    +0.364 C 
ATOM     15  O1  F05     1      93.249 118.531 141.352  0.00  0.00    -0.243 OA
BRANCH  14  19
ATOM     16  C1  F05     1      97.012 119.465 138.233  0.00  0.00    +0.130 A 
ATOM     17  N1  F05     1      97.218 118.510 139.161  0.00  0.00    -0.259 NA
ATOM     18  C2  F05     1      96.324 118.448 140.171  0.00  0.00    +0.145 A 
ATOM     19  C3  F05     1      95.225 119.330 140.263  0.00  0.00    +0.166 A 
ATOM     20  N2  F05     1      95.029 120.286 139.323  0.00  0.00    -0.245 NA
ATOM     21  C17 F05     1      95.922 120.351 138.313  0.00  0.00    +0.131 A 
ENDBRANCH  14  19
ENDBRANCH  13  14
ENDBRANCH   1  13
TORSDOF 4
ENDMDL
MODEL 3
REMARK VINA RESULT:    -8.375      1.971      3.203
REMARK INTER + INTRA:         -10.961
REMARK INTER:                 -10.446
REMARK INTRA:                  -0.515
REMARK UNBOUND:                -0.627
REMARK  Name = ligands_pdb/F3_CHEMBL281992.pdb
REMARK  4 active torsions:
REMARK  status: ('A' for Active; 'I' for Inactive)
REMARK    1  A    between atoms: C3_6  and  C4_7
REMARK    2  A    between atoms: C4_7  and  O2_9
REMARK    3  A    between atoms: O2_9  and  C5_10
REMARK    4  A    between atoms: C8_15  and  C9_16
REMARK                            x       y       z     vdW  Elec       q    Type
REMARK                         _______ _______ _______ _____ _____    ______ ____
ROOT
ATOM      1  C5  F05     1      95.143 118.952 146.224  0.00  0.00    +0.132 A 
ATOM      2  C6  F05     1      95.518 119.267 147.542  0.00  0.00    +0.047 A 
ATOM      3  C7  F05     1      96.013 118.265 148.392  0.00  0.00    +0.012 A 
ATOM      4  C8  F05     1      96.138 116.921 147.955  0.00  0.00    -0.018 A 
ATOM      5  C15 F05     1      95.736 116.626 146.626  0.00  0.00    +0.012 A 
ATOM      6  C16 F05     1      95.243 117.628 145.774  0.00  0.00    +0.047 A 
ENDROOT
BRANCH   4   7
ATOM      7  C9  F05     1      96.668 115.852 148.865  0.00  0.00    -0.018 A 
ATOM      8  C10 F05     1      97.155 116.163 150.161  0.00  0.00    +0.008 A 
ATOM      9  C11 F05     1      97.652 115.162 151.013  0.00  0.00    +0.001 A 
ATOM     10  C12 F05     1      97.672 113.824 150.590  0.00  0.00    +0.000 A 
ATOM     11  C13 F05     1      97.196 113.491 149.314  0.00  0.00    +0.001 A 
ATOM     12  C14 F05     1      96.701 114.492 148.462  0.00  0.00    +0.008 A 
ENDBRANCH   4   7
BRANCH   1  13
ATOM     13  O2  F05     1      94.635 119.905 145.371  0.00  0.00    -0.421 OA
BRANCH  13  14
ATOM     14  C4  F05     1      94.234 119.693 144.078  0.00  0.00    +0.364 C 
ATOM     15  O1  F05     1      93.139 119.242 143.775  0.00  0.00    -0.243 OA
BRANCH  14  19
ATOM     16  C1  F05     1      96.966 120.956 141.129  0.00  0.00    +0.130 A 
ATOM     17  N1  F05     1      95.665 121.252 140.941  0.00  0.00    -0.259 NA
ATOM     18  C2  F05     1      94.808 120.838 141.898  0.00  0.00    +0.145 A 
ATOM     19  C3  F05     1      95.237 120.132 143.043  0.00  0.00    +0.166 A 
ATOM     20  N2  F05     1      96.549 119.840 143.220  0.00  0.00    -0.245 NA
ATOM     21  C17 F05     1      97.407 120.252 142.265  0.00  0.00    +0.131 A 
ENDBRANCH  14  19
ENDBRANCH  13  14
ENDBRANCH   1  13
TORSDOF 4
ENDMDL
MODEL 4
REMARK VINA RESULT:    -8.265      1.796      2.641
REMARK INTER + INTRA:         -10.824
REMARK INTER:                 -10.263
REMARK INTRA:                  -0.562
REMARK UNBOUND:                -0.627
REMARK  Name = ligands_pdb/F3_CHEMBL281992.pdb
REMARK  4 active torsions:
REMARK  status: ('A' for Active; 'I' for Inactive)
REMARK    1  A    between atoms: C3_6  and  C4_7
REMARK    2  A    between atoms: C4_7  and  O2_9
REMARK    3  A    between atoms: O2_9  and  C5_10
REMARK    4  A    between atoms: C8_15  and  C9_16
REMARK                            x       y       z     vdW  Elec       q    Type
REMARK                         _______ _______ _______ _____ _____    ______ ____
ROOT
ATOM      1  C5  F05     1      95.207 118.077 145.406  0.00  0.00    +0.132 A 
ATOM      2  C6  F05     1      94.884 116.709 145.411  0.00  0.00    +0.047 A 
ATOM      3  C7  F05     1      95.321 115.886 146.461  0.00  0.00    +0.012 A 
ATOM      4  C8  F05     1      96.100 116.402 147.528  0.00  0.00    -0.018 A 
ATOM      5  C15 F05     1      96.428 117.782 147.491  0.00  0.00    +0.012 A 
ATOM      6  C16 F05     1      95.989 118.607 146.442  0.00  0.00    +0.047 A 
ENDROOT
BRANCH   4   7
ATOM      7  C9  F05     1      96.567 115.520 148.650  0.00  0.00    -0.018 A 
ATOM      8  C10 F05     1      96.416 114.110 148.589  0.00  0.00    +0.008 A 
ATOM      9  C11 F05     1      96.852 113.285 149.639  0.00  0.00    +0.001 A 
ATOM     10  C12 F05     1      97.450 113.849 150.776  0.00  0.00    +0.000 A 
ATOM     11  C13 F05     1      97.611 115.239 150.860  0.00  0.00    +0.001 A 
ATOM     12  C14 F05     1      97.173 116.064 149.811  0.00  0.00    +0.008 A 
ENDBRANCH   4   7
BRANCH   1  13
ATOM     13  O2  F05     1      94.812 118.908 144.383  0.00  0.00    -0.421 OA
BRANCH  13  14
ATOM     14  C4  F05     1      94.391 118.509 143.142  0.00  0.00    +0.364 C 
ATOM     15  O1  F05     1      93.250 118.148 142.897  0.00  0.00    -0.243 OA
BRANCH  14  19
ATOM     16  C1  F05     1      97.389 118.877 140.202  0.00  0.00    +0.130 A 
ATOM     17  N1  F05     1      97.598 119.488 141.385  0.00  0.00    -0.259 NA
ATOM     18  C2  F05     1      96.625 119.357 142.312  0.00  0.00    +0.145 A 
ATOM     19  C3  F05     1      95.445 118.620 142.070  0.00  0.00    +0.166 A 
ATOM     20  N2  F05     1      95.247 118.010 140.875  0.00  0.00    -0.245 NA
ATOM     21  C17 F05     1      96.217 118.141 139.947  0.00  0.00    +0.131 A 
ENDBRANCH  14  19
ENDBRANCH  13  14
ENDBRANCH   1  13
TORSDOF 4
ENDMDL
MODEL 5
REMARK VINA RESULT:    -8.220      3.934      7.966
REMARK INTER + INTRA:         -10.769
REMARK INTER:                 -10.318
REMARK INTRA:                  -0.451
REMARK UNBOUND:                -0.627
REMARK  Name = ligands_pdb/F3_CHEMBL281992.pdb
REMARK  4 active torsions:
REMARK  status: ('A' for Active; 'I' for Inactive)
REMARK    1  A    between atoms: C3_6  and  C4_7
REMARK    2  A    between atoms: C4_7  and  O2_9
REMARK    3  A    between atoms: O2_9  and  C5_10
REMARK    4  A    between atoms: C8_15  and  C9_16
REMARK                            x       y       z     vdW  Elec       q    Type
REMARK                         _______ _______ _______ _____ _____    ______ ____
ROOT
ATOM      1  C5  F05     1      95.364 118.826 146.199  0.00  0.00    +0.132 A 
ATOM      2  C6  F05     1      94.354 118.909 145.225  0.00  0.00    +0.047 A 
ATOM      3  C7  F05     1      94.687 118.882 143.862  0.00  0.00    +0.012 A 
ATOM      4  C8  F05     1      96.036 118.783 143.433  0.00  0.00    -0.018 A 
ATOM      5  C15 F05     1      97.038 118.720 144.435  0.00  0.00    +0.012 A 
ATOM      6  C16 F05     1      96.706 118.743 145.800  0.00  0.00    +0.047 A 
ENDROOT
BRANCH   4   7
ATOM      7  C9  F05     1      96.389 118.756 141.974  0.00  0.00    -0.018 A 
ATOM      8  C10 F05     1      95.572 118.079 141.031  0.00  0.00    +0.008 A 
ATOM      9  C11 F05     1      95.904 118.052 139.666  0.00  0.00    +0.001 A 
ATOM     10  C12 F05     1      97.061 118.702 139.210  0.00  0.00    +0.000 A 
ATOM     11  C13 F05     1      97.884 119.378 140.121  0.00  0.00    +0.001 A 
ATOM     12  C14 F05     1      97.553 119.403 141.487  0.00  0.00    +0.008 A 
ENDBRANCH   4   7
BRANCH   1  13
ATOM     13  O2  F05     1      95.075 118.870 147.544  0.00  0.00    -0.421 OA
BRANCH  13  14
ATOM     14  C4  F05     1      95.987 118.797 148.564  0.00  0.00    +0.364 C 
ATOM     15  O1  F05     1      96.464 119.776 149.116  0.00  0.00    -0.243 OA
BRANCH  14  19
ATOM     16  C1  F05     1      96.943 114.902 149.859  0.00  0.00    +0.130 A 
ATOM     17  N1  F05     1      97.554 115.932 150.479  0.00  0.00    -0.259 NA
ATOM     18  C2  F05     1      97.232 117.171 150.048  0.00  0.00    +0.145 A 
ATOM     19  C3  F05     1      96.306 117.391 149.005  0.00  0.00    +0.166 A 
ATOM     20  N2  F05     1      95.700 116.347 148.390  0.00  0.00    -0.245 NA
ATOM     21  C17 F05     1      96.020 115.108 148.818  0.00  0.00    +0.131 A 
ENDBRANCH  14  19
ENDBRANCH  13  14
ENDBRANCH   1  13
TORSDOF 4
ENDMDL
MODEL 6
REMARK VINA RESULT:    -7.955      2.141      3.207
REMARK INTER + INTRA:         -10.442
REMARK INTER:                  -9.815
REMARK INTRA:                  -0.627
REMARK UNBOUND:                -0.627
REMARK  Name = ligands_pdb/F3_CHEMBL281992.pdb
REMARK  4 active torsions:
REMARK  status: ('A' for Active; 'I' for Inactive)
REMARK    1  A    between atoms: C3_6  and  C4_7
REMARK    2  A    between atoms: C4_7  and  O2_9
REMARK    3  A    between atoms: O2_9  and  C5_10
REMARK    4  A    between atoms: C8_15  and  C9_16
REMARK                            x       y       z     vdW  Elec       q    Type
REMARK                         _______ _______ _______ _____ _____    ______ ____
ROOT
ATOM      1  C5  F05     1      95.693 118.381 145.788  0.00  0.00    +0.132 A 
ATOM      2  C6  F05     1      96.458 118.765 146.903  0.00  0.00    +0.047 A 
ATOM      3  C7  F05     1      96.784 117.824 147.892  0.00  0.00    +0.012 A 
ATOM      4  C8  F05     1      96.348 116.477 147.801  0.00  0.00    -0.018 A 
ATOM      5  C15 F05     1      95.562 116.118 146.676  0.00  0.00    +0.012 A 
ATOM      6  C16 F05     1      95.237 117.059 145.684  0.00  0.00    +0.047 A 
ENDROOT
BRANCH   4   7
ATOM      7  C9  F05     1      96.697 115.472 148.860  0.00  0.00    -0.018 A 
ATOM      8  C10 F05     1      96.451 114.088 148.671  0.00  0.00    +0.008 A 
ATOM      9  C11 F05     1      96.777 113.147 149.662  0.00  0.00    +0.001 A 
ATOM     10  C12 F05     1      97.359 113.569 150.868  0.00  0.00    +0.000 A 
ATOM     11  C13 F05     1      97.614 114.931 151.079  0.00  0.00    +0.001 A 
ATOM     12  C14 F05     1      97.285 115.871 150.088  0.00  0.00    +0.008 A 
ENDBRANCH   4   7
BRANCH   1  13
ATOM     13  O2  F05     1      95.339 119.283 144.810  0.00  0.00    -0.421 OA
BRANCH  13  14
ATOM     14  C4  F05     1      95.886 119.363 143.557  0.00  0.00    +0.364 C 
ATOM     15  O1  F05     1      97.080 119.520 143.349  0.00  0.00    -0.243 OA
BRANCH  14  19
ATOM     16  C1  F05     1      93.174 118.756 140.389  0.00  0.00    +0.130 A 
ATOM     17  N1  F05     1      94.296 118.008 140.401  0.00  0.00    -0.259 NA
ATOM     18  C2  F05     1      95.150 118.219 141.425  0.00  0.00    +0.145 A 
ATOM     19  C3  F05     1      94.895 119.169 142.438  0.00  0.00    +0.166 A 
ATOM     20  N2  F05     1      93.764 119.916 142.414  0.00  0.00    -0.245 NA
ATOM     21  C17 F05     1      92.909 119.707 141.391  0.00  0.00    +0.131 A 
ENDBRANCH  14  19
ENDBRANCH  13  14
ENDBRANCH   1  13
TORSDOF 4
ENDMDL
MODEL 7
REMARK VINA RESULT:    -7.894      3.583      8.200
REMARK INTER + INTRA:         -10.366
REMARK INTER:                  -9.775
REMARK INTRA:                  -0.591
REMARK UNBOUND:                -0.627
REMARK  Name = ligands_pdb/F3_CHEMBL281992.pdb
REMARK  4 active torsions:
REMARK  status: ('A' for Active; 'I' for Inactive)
REMARK    1  A    between atoms: C3_6  and  C4_7
REMARK    2  A    between atoms: C4_7  and  O2_9
REMARK    3  A    between atoms: O2_9  and  C5_10
REMARK    4  A    between atoms: C8_15  and  C9_16
REMARK                            x       y       z     vdW  Elec       q    Type
REMARK                         _______ _______ _______ _____ _____    ______ ____
ROOT
ATOM      1  C5  F05     1      96.091 118.311 144.278  0.00  0.00    +0.132 A 
ATOM      2  C6  F05     1      97.354 118.918 144.174  0.00  0.00    +0.047 A 
ATOM      3  C7  F05     1      97.831 119.342 142.924  0.00  0.00    +0.012 A 
ATOM      4  C8  F05     1      97.067 119.163 141.742  0.00  0.00    -0.018 A 
ATOM      5  C15 F05     1      95.803 118.532 141.871  0.00  0.00    +0.012 A 
ATOM      6  C16 F05     1      95.323 118.109 143.122  0.00  0.00    +0.047 A 
ENDROOT
BRANCH   4   7
ATOM      7  C9  F05     1      97.580 119.617 140.407  0.00  0.00    -0.018 A 
ATOM      8  C10 F05     1      97.560 118.756 139.279  0.00  0.00    +0.008 A 
ATOM      9  C11 F05     1      98.041 119.180 138.029  0.00  0.00    +0.001 A 
ATOM     10  C12 F05     1      98.552 120.478 137.876  0.00  0.00    +0.000 A 
ATOM     11  C13 F05     1      98.581 121.349 138.974  0.00  0.00    +0.001 A 
ATOM     12  C14 F05     1      98.102 120.923 140.224  0.00  0.00    +0.008 A 
ENDBRANCH   4   7
BRANCH   1  13
ATOM     13  O2  F05     1      95.601 117.865 145.484  0.00  0.00    -0.421 OA
BRANCH  13  14
ATOM     14  C4  F05     1      95.572 118.581 146.652  0.00  0.00    +0.364 C 
ATOM     15  O1  F05     1      95.088 119.699 146.749  0.00  0.00    -0.243 OA
BRANCH  14  19
ATOM     16  C1  F05     1      97.159 116.597 150.014  0.00  0.00    +0.130 A 
ATOM     17  N1  F05     1      97.236 117.942 149.991  0.00  0.00    -0.259 NA
ATOM     18  C2  F05     1      96.721 118.557 148.904  0.00  0.00    +0.145 A 
ATOM     19  C3  F05     1      96.128 117.842 147.841  0.00  0.00    +0.166 A 
ATOM     20  N2  F05     1      96.057 116.489 147.877  0.00  0.00    -0.245 NA
ATOM     21  C17 F05     1      96.571 115.872 148.960  0.00  0.00    +0.131 A 
ENDBRANCH  14  19
ENDBRANCH  13  14
ENDBRANCH   1  13
TORSDOF 4
ENDMDL
MODEL 8
REMARK VINA RESULT:    -7.850      2.220      2.794
REMARK INTER + INTRA:         -10.313
REMARK INTER:                  -9.841
REMARK INTRA:                  -0.472
REMARK UNBOUND:                -0.627
REMARK  Name = ligands_pdb/F3_CHEMBL281992.pdb
REMARK  4 active torsions:
REMARK  status: ('A' for Active; 'I' for Inactive)
REMARK    1  A    between atoms: C3_6  and  C4_7
REMARK    2  A    between atoms: C4_7  and  O2_9
REMARK    3  A    between atoms: O2_9  and  C5_10
REMARK    4  A    between atoms: C8_15  and  C9_16
REMARK                            x       y       z     vdW  Elec       q    Type
REMARK                         _______ _______ _______ _____ _____    ______ ____
ROOT
ATOM      1  C5  F05     1      94.397 119.027 144.478  0.00  0.00    +0.132 A 
ATOM      2  C6  F05     1      94.531 119.804 145.642  0.00  0.00    +0.047 A 
ATOM      3  C7  F05     1      95.138 119.262 146.785  0.00  0.00    +0.012 A 
ATOM      4  C8  F05     1      95.619 117.928 146.803  0.00  0.00    -0.018 A 
ATOM      5  C15 F05     1      95.457 117.158 145.623  0.00  0.00    +0.012 A 
ATOM      6  C16 F05     1      94.851 117.700 144.477  0.00  0.00    +0.047 A 
ENDROOT
BRANCH   4   7
ATOM      7  C9  F05     1      96.268 117.351 148.027  0.00  0.00    -0.018 A 
ATOM      8  C10 F05     1      96.347 115.948 148.227  0.00  0.00    +0.008 A 
ATOM      9  C11 F05     1      96.953 115.408 149.373  0.00  0.00    +0.001 A 
ATOM     10  C12 F05     1      97.498 116.258 150.348  0.00  0.00    +0.000 A 
ATOM     11  C13 F05     1      97.434 117.647 150.174  0.00  0.00    +0.001 A 
ATOM     12  C14 F05     1      96.826 118.187 149.028  0.00  0.00    +0.008 A 
ENDBRANCH   4   7
BRANCH   1  13
ATOM     13  O2  F05     1      93.789 119.520 143.346  0.00  0.00    -0.421 OA
BRANCH  13  14
ATOM     14  C4  F05     1      94.134 119.220 142.055  0.00  0.00    +0.364 C 
ATOM     15  O1  F05     1      95.289 119.142 141.664  0.00  0.00    -0.243 OA
BRANCH  14  19
ATOM     16  C1  F05     1      90.909 118.398 139.469  0.00  0.00    +0.130 A 
ATOM     17  N1  F05     1      92.102 118.678 138.908  0.00  0.00    -0.259 NA
ATOM     18  C2  F05     1      93.121 118.938 139.755  0.00  0.00    +0.145 A 
ATOM     19  C3  F05     1      92.961 118.920 141.158  0.00  0.00    +0.166 A 
ATOM     20  N2  F05     1      91.756 118.637 141.710  0.00  0.00    -0.245 NA
ATOM     21  C17 F05     1      90.736 118.378 140.866  0.00  0.00    +0.131 A 
ENDBRANCH  14  19
ENDBRANCH  13  14
ENDBRANCH   1  13
TORSDOF 4
ENDMDL
MODEL 9
REMARK VINA RESULT:    -7.672      3.006      4.114
REMARK INTER + INTRA:         -10.093
REMARK INTER:                  -9.460
REMARK INTRA:                  -0.632
REMARK UNBOUND:                -0.627
REMARK  Name = ligands_pdb/F3_CHEMBL281992.pdb
REMARK  4 active torsions:
REMARK  status: ('A' for Active; 'I' for Inactive)
REMARK    1  A    between atoms: C3_6  and  C4_7
REMARK    2  A    between atoms: C4_7  and  O2_9
REMARK    3  A    between atoms: O2_9  and  C5_10
REMARK    4  A    between atoms: C8_15  and  C9_16
REMARK                            x       y       z     vdW  Elec       q    Type
REMARK                         _______ _______ _______ _____ _____    ______ ____
ROOT
ATOM      1  C5  F05     1      94.255 119.035 144.002  0.00  0.00    +0.132 A 
ATOM      2  C6  F05     1      94.148 119.864 145.133  0.00  0.00    +0.047 A 
ATOM      3  C7  F05     1      94.761 119.492 146.339  0.00  0.00    +0.012 A 
ATOM      4  C8  F05     1      95.488 118.280 146.455  0.00  0.00    -0.018 A 
ATOM      5  C15 F05     1      95.567 117.452 145.306  0.00  0.00    +0.012 A 
ATOM      6  C16 F05     1      94.956 117.824 144.097  0.00  0.00    +0.047 A 
ENDROOT
BRANCH   4   7
ATOM      7  C9  F05     1      96.143 117.884 147.747  0.00  0.00    -0.018 A 
ATOM      8  C10 F05     1      96.508 118.856 148.715  0.00  0.00    +0.008 A 
ATOM      9  C11 F05     1      97.122 118.486 149.923  0.00  0.00    +0.001 A 
ATOM     10  C12 F05     1      97.384 117.134 150.194  0.00  0.00    +0.000 A 
ATOM     11  C13 F05     1      97.032 116.154 149.254  0.00  0.00    +0.001 A 
ATOM     12  C14 F05     1      96.420 116.526 148.045  0.00  0.00    +0.008 A 
ENDBRANCH   4   7
BRANCH   1  13
ATOM     13  O2  F05     1      93.650 119.359 142.809  0.00  0.00    -0.421 OA
BRANCH  13  14
ATOM     14  C4  F05     1      92.317 119.222 142.523  0.00  0.00    +0.364 C 
ATOM     15  O1  F05     1      91.812 118.178 142.138  0.00  0.00    -0.243 OA
BRANCH  14  19
ATOM     16  C1  F05     1      89.970 122.627 143.333  0.00  0.00    +0.130 A 
ATOM     17  N1  F05     1      89.642 121.480 143.961  0.00  0.00    -0.259 NA
ATOM     18  C2  F05     1      90.408 120.402 143.687  0.00  0.00    +0.145 A 
ATOM     19  C3  F05     1      91.499 120.458 142.792  0.00  0.00    +0.166 A 
ATOM     20  N2  F05     1      91.818 121.617 142.166  0.00  0.00    -0.245 NA
ATOM     21  C17 F05     1      91.054 122.696 142.438  0.00  0.00    +0.131 A 
ENDBRANCH  14  19
ENDBRANCH  13  14
ENDBRANCH   1  13
TORSDOF 4
ENDMDL
MODEL 10
REMARK VINA RESULT:    -7.527      3.277      5.247
REMARK INTER + INTRA:          -9.914
REMARK INTER:                  -9.228
REMARK INTRA:                  -0.686
REMARK UNBOUND:                -0.627
REMARK  Name = ligands_pdb/F3_CHEMBL281992.pdb
REMARK  4 active torsions:
REMARK  status: ('A' for Active; 'I' for Inactive)
REMARK    1  A    between atoms: C3_6  and  C4_7
REMARK    2  A    between atoms: C4_7  and  O2_9
REMARK    3  A    between atoms: O2_9  and  C5_10
REMARK    4  A    between atoms: C8_15  and  C9_16
REMARK                            x       y       z     vdW  Elec       q    Type
REMARK                         _______ _______ _______ _____ _____    ______ ____
ROOT
ATOM      1  C5  F05     1      97.855 118.925 139.124  0.00  0.00    +0.132 A 
ATOM      2  C6  F05     1      98.481 119.562 140.209  0.00  0.00    +0.047 A 
ATOM      3  C7  F05     1      97.831 119.638 141.451  0.00  0.00    +0.012 A 
ATOM      4  C8  F05     1      96.537 119.089 141.642  0.00  0.00    -0.018 A 
ATOM      5  C15 F05     1      95.919 118.467 140.526  0.00  0.00    +0.012 A 
ATOM      6  C16 F05     1      96.569 118.389 139.283  0.00  0.00    +0.047 A 
ENDROOT
BRANCH   4   7
ATOM      7  C9  F05     1      95.844 119.171 142.971  0.00  0.00    -0.018 A 
ATOM      8  C10 F05     1      96.053 118.187 143.972  0.00  0.00    +0.008 A 
ATOM      9  C11 F05     1      95.403 118.263 145.215  0.00  0.00    +0.001 A 
ATOM     10  C12 F05     1      94.530 119.327 145.490  0.00  0.00    +0.000 A 
ATOM     11  C13 F05     1      94.307 120.313 144.518  0.00  0.00    +0.001 A 
ATOM     12  C14 F05     1      94.956 120.235 143.274  0.00  0.00    +0.008 A 
ENDBRANCH   4   7
BRANCH   1  13
ATOM     13  O2  F05     1      98.455 118.851 137.887  0.00  0.00    -0.421 OA
BRANCH  13  14
ATOM     14  C4  F05     1      98.062 119.529 136.763  0.00  0.00    +0.364 C 
ATOM     15  O1  F05     1      97.827 118.987 135.693  0.00  0.00    -0.243 OA
BRANCH  14  19
ATOM     16  C1  F05     1      97.620 123.678 137.356  0.00  0.00    +0.130 A 
ATOM     17  N1  F05     1      98.874 123.187 137.292  0.00  0.00    -0.259 NA
ATOM     18  C2  F05     1      98.992 121.856 137.101  0.00  0.00    +0.145 A 
ATOM     19  C3  F05     1      97.870 121.009 136.972  0.00  0.00    +0.166 A 
ATOM     20  N2  F05     1      96.614 121.514 137.040  0.00  0.00    -0.245 NA
ATOM     21  C17 F05     1      96.493 122.844 137.231  0.00  0.00    +0.131 A 
ENDBRANCH  14  19
ENDBRANCH  13  14
ENDBRANCH   1  13
TORSDOF 4
ENDMDL
