MODEL 1
REMARK VINA RESULT:    -9.935      0.000      0.000
REMARK INTER + INTRA:         -13.934
REMARK INTER:                 -12.839
REMARK INTRA:                  -1.095
REMARK UNBOUND:                -1.095
REMARK  Name = ligands_pdb/F3_CHEMBL418010.pdb
REMARK  7 active torsions:
REMARK  status: ('A' for Active; 'I' for Inactive)
REMARK    1  A    between atoms: N2_5  and  C3_7
REMARK    2  A    between atoms: C5_10  and  N3_11
REMARK    3  A    between atoms: C6_13  and  C7_15
REMARK    4  A    between atoms: C12_24  and  O2_25
REMARK    5  A    between atoms: O2_25  and  C13_26
REMARK    6  A    between atoms: C16_34  and  C17_35
REMARK    7  A    between atoms: C18_40  and  C19_41
REMARK                            x       y       z     vdW  Elec       q    Type
REMARK                         _______ _______ _______ _____ _____    ______ ____
ROOT
ATOM      1  C3  F10     1      94.683 118.391 144.412  0.00  0.00    +0.038 A 
ATOM      2  C4  F10     1      95.502 118.363 143.263  0.00  0.00    +0.047 A 
ATOM      3  C5  F10     1      95.221 119.174 142.152  0.00  0.00    +0.035 A 
ATOM      4  C14 F10     1      94.111 120.035 142.188  0.00  0.00    +0.024 A 
ATOM      5  C15 F10     1      93.278 120.059 143.316  0.00  0.00    +0.007 A 
ATOM      6  C16 F10     1      93.550 119.237 144.425  0.00  0.00    -0.029 A 
ATOM      7  C17 F10     1      92.621 119.289 145.634  0.00  0.00    +0.045 C 
ENDROOT
BRANCH   1  11
ATOM      8  C1  F10     1      96.466 119.176 148.316  0.00  0.00    +0.116 A 
ATOM      9  N1  F10     1      95.872 119.034 147.117  0.00  0.00    -0.223 NA
ATOM     10  C2  F10     1      95.590 117.774 146.723  0.00  0.00    +0.220 A 
ATOM     11  N2  F10     1      94.935 117.568 145.513  0.00  0.00    -0.283 N 
ATOM     12  H2  F10     1      94.509 116.653 145.446  0.00  0.00    +0.155 HD
ATOM     13  N4  F10     1      95.827 116.658 147.440  0.00  0.00    -0.214 NA
ATOM     14  C18 F10     1      96.422 116.776 148.648  0.00  0.00    +0.077 A 
ATOM     15  C24 F10     1      96.765 118.067 149.124  0.00  0.00    +0.048 A 
BRANCH  14  16
ATOM     16  C19 F10     1      96.684 115.510 149.418  0.00  0.00    +0.019 A 
ATOM     17  C20 F10     1      96.136 114.259 149.027  0.00  0.00    +0.120 A 
ATOM     18  N5  F10     1      96.344 113.100 149.686  0.00  0.00    -0.263 NA
ATOM     19  C21 F10     1      97.117 113.120 150.788  0.00  0.00    +0.111 A 
ATOM     20  C22 F10     1      97.714 114.294 151.272  0.00  0.00    +0.020 A 
ATOM     21  C23 F10     1      97.498 115.497 150.583  0.00  0.00    +0.013 A 
ENDBRANCH  14  16
ENDBRANCH   1  11
BRANCH   3  22
ATOM     22  N3  F10     1      96.082 119.123 141.026  0.00  0.00    -0.281 N 
ATOM     23  H4  F10     1      95.827 118.451 140.314  0.00  0.00    +0.155 HD
ATOM     24  C6  F10     1      97.179 119.932 140.761  0.00  0.00    +0.252 C 
ATOM     25  O1  F10     1      97.518 120.822 141.524  0.00  0.00    -0.270 OA
BRANCH  24  26
ATOM     26  C7  F10     1      97.875 119.675 139.444  0.00  0.00    +0.079 A 
ATOM     27  C8  F10     1      99.223 119.249 139.439  0.00  0.00    +0.017 A 
ATOM     28  C9  F10     1      99.892 118.987 138.233  0.00  0.00    +0.001 A 
ATOM     29  C10 F10     1      99.225 119.152 137.013  0.00  0.00    +0.004 A 
ATOM     30  C11 F10     1      97.889 119.578 136.998  0.00  0.00    +0.046 A 
ATOM     31  C12 F10     1      97.205 119.840 138.206  0.00  0.00    +0.132 A 
BRANCH  31  32
ATOM     32  O2  F10     1      95.901 120.297 138.192  0.00  0.00    -0.494 OA
ATOM     33  C13 F10     1      95.522 121.644 137.861  0.00  0.00    +0.277 C 
ENDBRANCH  31  32
ENDBRANCH  24  26
ENDBRANCH   3  22
TORSDOF 5
ENDMDL
MODEL 2
REMARK VINA RESULT:    -9.922      2.751     10.079
REMARK INTER + INTRA:         -13.917
REMARK INTER:                 -13.456
REMARK INTRA:                  -0.461
REMARK UNBOUND:                -1.095
REMARK  Name = ligands_pdb/F3_CHEMBL418010.pdb
REMARK  7 active torsions:
REMARK  status: ('A' for Active; 'I' for Inactive)
REMARK    1  A    between atoms: N2_5  and  C3_7
REMARK    2  A    between atoms: C5_10  and  N3_11
REMARK    3  A    between atoms: C6_13  and  C7_15
REMARK    4  A    between atoms: C12_24  and  O2_25
REMARK    5  A    between atoms: O2_25  and  C13_26
REMARK    6  A    between atoms: C16_34  and  C17_35
REMARK    7  A    between atoms: C18_40  and  C19_41
REMARK                            x       y       z     vdW  Elec       q    Type
REMARK                         _______ _______ _______ _____ _____    ______ ____
ROOT
ATOM      1  C3  F10     1      94.059 120.183 142.872  0.00  0.00    +0.038 A 
ATOM      2  C4  F10     1      94.776 119.841 144.039  0.00  0.00    +0.047 A 
ATOM      3  C5  F10     1      94.112 119.395 145.193  0.00  0.00    +0.035 A 
ATOM      4  C14 F10     1      92.713 119.277 145.183  0.00  0.00    +0.024 A 
ATOM      5  C15 F10     1      91.986 119.631 144.037  0.00  0.00    +0.007 A 
ATOM      6  C16 F10     1      92.648 120.092 142.884  0.00  0.00    -0.029 A 
ATOM      7  C17 F10     1      91.825 120.470 141.656  0.00  0.00    +0.045 C 
ENDROOT
BRANCH   1  11
ATOM      8  C1  F10     1      96.347 118.170 139.750  0.00  0.00    +0.116 A 
ATOM      9  N1  F10     1      95.578 118.702 140.717  0.00  0.00    -0.223 NA
ATOM     10  C2  F10     1      95.520 120.049 140.777  0.00  0.00    +0.220 A 
ATOM     11  N2  F10     1      94.705 120.656 141.726  0.00  0.00    -0.283 N 
ATOM     12  H2  F10     1      94.495 121.621 141.508  0.00  0.00    +0.155 HD
ATOM     13  N4  F10     1      96.143 120.898 139.935  0.00  0.00    -0.214 NA
ATOM     14  C18 F10     1      96.921 120.386 138.955  0.00  0.00    +0.077 A 
ATOM     15  C24 F10     1      97.046 118.978 138.838  0.00  0.00    +0.048 A 
BRANCH  14  16
ATOM     16  C19 F10     1      97.613 121.360 138.039  0.00  0.00    +0.019 A 
ATOM     17  C20 F10     1      98.001 121.011 136.719  0.00  0.00    +0.120 A 
ATOM     18  N5  F10     1      98.623 121.850 135.864  0.00  0.00    -0.263 NA
ATOM     19  C21 F10     1      98.898 123.100 136.280  0.00  0.00    +0.111 A 
ATOM     20  C22 F10     1      98.562 123.562 137.562  0.00  0.00    +0.020 A 
ATOM     21  C23 F10     1      97.914 122.687 138.448  0.00  0.00    +0.013 A 
ENDBRANCH  14  16
ENDBRANCH   1  11
BRANCH   3  22
ATOM     22  N3  F10     1      94.877 119.047 146.336  0.00  0.00    -0.281 N 
ATOM     23  H4  F10     1      95.013 119.789 147.010  0.00  0.00    +0.155 HD
ATOM     24  C6  F10     1      95.389 117.799 146.665  0.00  0.00    +0.252 C 
ATOM     25  O1  F10     1      95.211 116.825 145.953  0.00  0.00    -0.270 OA
BRANCH  24  26
ATOM     26  C7  F10     1      96.122 117.723 147.986  0.00  0.00    +0.079 A 
ATOM     27  C8  F10     1      96.453 118.915 148.670  0.00  0.00    +0.017 A 
ATOM     28  C9  F10     1      97.118 118.877 149.905  0.00  0.00    +0.001 A 
ATOM     29  C10 F10     1      97.466 117.645 150.474  0.00  0.00    +0.004 A 
ATOM     30  C11 F10     1      97.149 116.453 149.808  0.00  0.00    +0.046 A 
ATOM     31  C12 F10     1      96.477 116.480 148.567  0.00  0.00    +0.132 A 
BRANCH  31  32
ATOM     32  O2  F10     1      96.197 115.307 147.890  0.00  0.00    -0.494 OA
ATOM     33  C13 F10     1      96.337 113.995 148.460  0.00  0.00    +0.277 C 
ENDBRANCH  31  32
ENDBRANCH  24  26
ENDBRANCH   3  22
TORSDOF 5
ENDMDL
MODEL 3
REMARK VINA RESULT:    -9.283      3.295      4.861
REMARK INTER + INTRA:         -13.091
REMARK INTER:                 -12.376
REMARK INTRA:                  -0.714
REMARK UNBOUND:                -1.095
REMARK  Name = ligands_pdb/F3_CHEMBL418010.pdb
REMARK  7 active torsions:
REMARK  status: ('A' for Active; 'I' for Inactive)
REMARK    1  A    between atoms: N2_5  and  C3_7
REMARK    2  A    between atoms: C5_10  and  N3_11
REMARK    3  A    between atoms: C6_13  and  C7_15
REMARK    4  A    between atoms: C12_24  and  O2_25
REMARK    5  A    between atoms: O2_25  and  C13_26
REMARK    6  A    between atoms: C16_34  and  C17_35
REMARK    7  A    between atoms: C18_40  and  C19_41
REMARK                            x       y       z     vdW  Elec       q    Type
REMARK                         _______ _______ _______ _____ _____    ______ ____
ROOT
ATOM      1  C3  F10     1      95.459 118.371 143.523  0.00  0.00    +0.038 A 
ATOM      2  C4  F10     1      94.260 118.445 142.784  0.00  0.00    +0.047 A 
ATOM      3  C5  F10     1      94.157 119.264 141.648  0.00  0.00    +0.035 A 
ATOM      4  C14 F10     1      95.270 120.014 141.234  0.00  0.00    +0.024 A 
ATOM      5  C15 F10     1      96.463 119.964 141.970  0.00  0.00    +0.007 A 
ATOM      6  C16 F10     1      96.564 119.156 143.117  0.00  0.00    -0.029 A 
ATOM      7  C17 F10     1      97.876 119.128 143.893  0.00  0.00    +0.045 C 
ENDROOT
BRANCH   1  11
ATOM      8  C1  F10     1      95.450 119.363 147.772  0.00  0.00    +0.116 A 
ATOM      9  N1  F10     1      95.381 119.138 146.447  0.00  0.00    -0.223 NA
ATOM     10  C2  F10     1      95.666 117.888 146.026  0.00  0.00    +0.220 A 
ATOM     11  N2  F10     1      95.566 117.583 144.673  0.00  0.00    -0.283 N 
ATOM     12  H2  F10     1      95.502 116.590 144.495  0.00  0.00    +0.155 HD
ATOM     13  N4  F10     1      95.984 116.847 146.822  0.00  0.00    -0.214 NA
ATOM     14  C18 F10     1      96.059 117.049 148.156  0.00  0.00    +0.077 A 
ATOM     15  C24 F10     1      95.790 118.342 148.675  0.00  0.00    +0.048 A 
BRANCH  14  16
ATOM     16  C19 F10     1      96.428 115.870 149.016  0.00  0.00    +0.019 A 
ATOM     17  C20 F10     1      96.030 114.545 148.695  0.00  0.00    +0.120 A 
ATOM     18  N5  F10     1      96.338 113.460 149.435  0.00  0.00    -0.263 NA
ATOM     19  C21 F10     1      97.067 113.633 150.553  0.00  0.00    +0.111 A 
ATOM     20  C22 F10     1      97.520 114.893 150.973  0.00  0.00    +0.020 A 
ATOM     21  C23 F10     1      97.200 116.020 150.200  0.00  0.00    +0.013 A 
ENDBRANCH  14  16
ENDBRANCH   1  11
BRANCH   3  22
ATOM     22  N3  F10     1      92.934 119.292 140.928  0.00  0.00    -0.281 N 
ATOM     23  H4  F10     1      92.270 119.993 141.229  0.00  0.00    +0.155 HD
ATOM     24  C6  F10     1      92.584 118.528 139.823  0.00  0.00    +0.252 C 
ATOM     25  O1  F10     1      93.351 117.711 139.340  0.00  0.00    -0.270 OA
BRANCH  24  26
ATOM     26  C7  F10     1      91.224 118.822 139.232  0.00  0.00    +0.079 A 
ATOM     27  C8  F10     1      91.057 119.948 138.393  0.00  0.00    +0.017 A 
ATOM     28  C9  F10     1      89.811 120.239 137.816  0.00  0.00    +0.001 A 
ATOM     29  C10 F10     1      88.711 119.411 138.073  0.00  0.00    +0.004 A 
ATOM     30  C11 F10     1      88.857 118.292 138.906  0.00  0.00    +0.046 A 
ATOM     31  C12 F10     1      90.107 117.988 139.488  0.00  0.00    +0.132 A 
BRANCH  31  32
ATOM     32  O2  F10     1      90.244 116.908 140.340  0.00  0.00    -0.494 OA
ATOM     33  C13 F10     1      89.160 116.050 140.734  0.00  0.00    +0.277 C 
ENDBRANCH  31  32
ENDBRANCH  24  26
ENDBRANCH   3  22
TORSDOF 5
ENDMDL
MODEL 4
REMARK VINA RESULT:    -9.075      1.443      2.250
REMARK INTER + INTRA:         -12.822
REMARK INTER:                 -12.070
REMARK INTRA:                  -0.752
REMARK UNBOUND:                -1.095
REMARK  Name = ligands_pdb/F3_CHEMBL418010.pdb
REMARK  7 active torsions:
REMARK  status: ('A' for Active; 'I' for Inactive)
REMARK    1  A    between atoms: N2_5  and  C3_7
REMARK    2  A    between atoms: C5_10  and  N3_11
REMARK    3  A    between atoms: C6_13  and  C7_15
REMARK    4  A    between atoms: C12_24  and  O2_25
REMARK    5  A    between atoms: O2_25  and  C13_26
REMARK    6  A    between atoms: C16_34  and  C17_35
REMARK    7  A    between atoms: C18_40  and  C19_41
REMARK                            x       y       z     vdW  Elec       q    Type
REMARK                         _______ _______ _______ _____ _____    ______ ____
ROOT
ATOM      1  C3  F10     1      94.094 119.054 143.536  0.00  0.00    +0.038 A 
ATOM      2  C4  F10     1      94.913 119.300 142.414  0.00  0.00    +0.047 A 
ATOM      3  C5  F10     1      94.562 120.265 141.457  0.00  0.00    +0.035 A 
ATOM      4  C14 F10     1      93.380 121.006 141.624  0.00  0.00    +0.024 A 
ATOM      5  C15 F10     1      92.547 120.760 142.726  0.00  0.00    +0.007 A 
ATOM      6  C16 F10     1      92.890 119.783 143.678  0.00  0.00    -0.029 A 
ATOM      7  C17 F10     1      91.959 119.541 144.862  0.00  0.00    +0.045 C 
ENDROOT
BRANCH   1  11
ATOM      8  C1  F10     1      95.654 119.303 147.603  0.00  0.00    +0.116 A 
ATOM      9  N1  F10     1      95.117 119.318 146.369  0.00  0.00    -0.223 NA
ATOM     10  C2  F10     1      95.007 118.130 145.739  0.00  0.00    +0.220 A 
ATOM     11  N2  F10     1      94.417 118.076 144.481  0.00  0.00    -0.283 N 
ATOM     12  H2  F10     1      94.111 117.146 144.227  0.00  0.00    +0.155 HD
ATOM     13  N4  F10     1      95.362 116.935 146.253  0.00  0.00    -0.214 NA
ATOM     14  C18 F10     1      95.904 116.896 147.490  0.00  0.00    +0.077 A 
ATOM     15  C24 F10     1      96.069 118.107 148.210  0.00  0.00    +0.048 A 
BRANCH  14  16
ATOM     16  C19 F10     1      96.302 115.548 148.030  0.00  0.00    +0.019 A 
ATOM     17  C20 F10     1      97.408 115.380 148.905  0.00  0.00    +0.120 A 
ATOM     18  N5  F10     1      97.801 114.194 149.413  0.00  0.00    -0.263 NA
ATOM     19  C21 F10     1      97.108 113.091 149.074  0.00  0.00    +0.111 A 
ATOM     20  C22 F10     1      95.996 113.130 148.218  0.00  0.00    +0.020 A 
ATOM     21  C23 F10     1      95.589 114.366 147.693  0.00  0.00    +0.013 A 
ENDBRANCH  14  16
ENDBRANCH   1  11
BRANCH   3  22
ATOM     22  N3  F10     1      95.426 120.488 140.353  0.00  0.00    -0.281 N 
ATOM     23  H4  F10     1      95.066 120.194 139.454  0.00  0.00    +0.155 HD
ATOM     24  C6  F10     1      96.660 121.123 140.359  0.00  0.00    +0.252 C 
ATOM     25  O1  F10     1      97.141 121.580 141.383  0.00  0.00    -0.270 OA
BRANCH  24  26
ATOM     26  C7  F10     1      97.328 121.261 139.010  0.00  0.00    +0.079 A 
ATOM     27  C8  F10     1      96.899 122.272 138.119  0.00  0.00    +0.017 A 
ATOM     28  C9  F10     1      97.509 122.436 136.866  0.00  0.00    +0.001 A 
ATOM     29  C10 F10     1      98.556 121.588 136.482  0.00  0.00    +0.004 A 
ATOM     30  C11 F10     1      98.993 120.578 137.351  0.00  0.00    +0.046 A 
ATOM     31  C12 F10     1      98.388 120.406 138.615  0.00  0.00    +0.132 A 
BRANCH  31  32
ATOM     32  O2  F10     1      98.791 119.387 139.457  0.00  0.00    -0.494 OA
ATOM     33  C13 F10     1     100.153 118.950 139.599  0.00  0.00    +0.277 C 
ENDBRANCH  31  32
ENDBRANCH  24  26
ENDBRANCH   3  22
TORSDOF 5
ENDMDL
MODEL 5
REMARK VINA RESULT:    -9.013      2.659      9.975
REMARK INTER + INTRA:         -12.743
REMARK INTER:                 -12.340
REMARK INTRA:                  -0.403
REMARK UNBOUND:                -1.095
REMARK  Name = ligands_pdb/F3_CHEMBL418010.pdb
REMARK  7 active torsions:
REMARK  status: ('A' for Active; 'I' for Inactive)
REMARK    1  A    between atoms: N2_5  and  C3_7
REMARK    2  A    between atoms: C5_10  and  N3_11
REMARK    3  A    between atoms: C6_13  and  C7_15
REMARK    4  A    between atoms: C12_24  and  O2_25
REMARK    5  A    between atoms: O2_25  and  C13_26
REMARK    6  A    between atoms: C16_34  and  C17_35
REMARK    7  A    between atoms: C18_40  and  C19_41
REMARK                            x       y       z     vdW  Elec       q    Type
REMARK                         _______ _______ _______ _____ _____    ______ ____
ROOT
ATOM      1  C3  F10     1      94.713 118.781 142.801  0.00  0.00    +0.038 A 
ATOM      2  C4  F10     1      95.178 117.894 143.795  0.00  0.00    +0.047 A 
ATOM      3  C5  F10     1      94.451 117.683 144.977  0.00  0.00    +0.035 A 
ATOM      4  C14 F10     1      93.234 118.358 145.170  0.00  0.00    +0.024 A 
ATOM      5  C15 F10     1      92.769 119.257 144.199  0.00  0.00    +0.007 A 
ATOM      6  C16 F10     1      93.504 119.481 143.020  0.00  0.00    -0.029 A 
ATOM      7  C17 F10     1      92.968 120.468 141.987  0.00  0.00    +0.045 C 
ENDROOT
BRANCH   1  11
ATOM      8  C1  F10     1      97.765 121.736 141.805  0.00  0.00    +0.116 A 
ATOM      9  N1  F10     1      96.865 120.822 142.214  0.00  0.00    -0.223 NA
ATOM     10  C2  F10     1      96.341 120.017 141.265  0.00  0.00    +0.220 A 
ATOM     11  N2  F10     1      95.442 119.023 141.633  0.00  0.00    -0.283 N 
ATOM     12  H2  F10     1      95.340 118.302 140.932  0.00  0.00    +0.155 HD
ATOM     13  N4  F10     1      96.665 120.036 139.956  0.00  0.00    -0.214 NA
ATOM     14  C18 F10     1      97.566 120.945 139.523  0.00  0.00    +0.077 A 
ATOM     15  C24 F10     1      98.149 121.838 140.458  0.00  0.00    +0.048 A 
BRANCH  14  16
ATOM     16  C19 F10     1      97.897 120.948 138.054  0.00  0.00    +0.019 A 
ATOM     17  C20 F10     1      97.824 119.773 137.260  0.00  0.00    +0.120 A 
ATOM     18  N5  F10     1      98.110 119.728 135.943  0.00  0.00    -0.263 NA
ATOM     19  C21 F10     1      98.493 120.865 135.332  0.00  0.00    +0.111 A 
ATOM     20  C22 F10     1      98.601 122.089 136.010  0.00  0.00    +0.020 A 
ATOM     21  C23 F10     1      98.301 122.131 137.380  0.00  0.00    +0.013 A 
ENDBRANCH  14  16
ENDBRANCH   1  11
BRANCH   3  22
ATOM     22  N3  F10     1      94.951 116.768 145.940  0.00  0.00    -0.281 N 
ATOM     23  H4  F10     1      94.707 115.799 145.786  0.00  0.00    +0.155 HD
ATOM     24  C6  F10     1      95.789 117.041 147.013  0.00  0.00    +0.252 C 
ATOM     25  O1  F10     1      96.199 118.169 147.234  0.00  0.00    -0.270 OA
BRANCH  24  26
ATOM     26  C7  F10     1      96.201 115.844 147.839  0.00  0.00    +0.079 A 
ATOM     27  C8  F10     1      95.610 114.585 147.586  0.00  0.00    +0.017 A 
ATOM     28  C9  F10     1      95.983 113.452 148.325  0.00  0.00    +0.001 A 
ATOM     29  C10 F10     1      96.951 113.561 149.332  0.00  0.00    +0.004 A 
ATOM     30  C11 F10     1      97.545 114.803 149.600  0.00  0.00    +0.046 A 
ATOM     31  C12 F10     1      97.179 115.949 148.859  0.00  0.00    +0.132 A 
BRANCH  31  32
ATOM     32  O2  F10     1      97.736 117.181 149.146  0.00  0.00    -0.494 OA
ATOM     33  C13 F10     1      97.499 117.908 150.364  0.00  0.00    +0.277 C 
ENDBRANCH  31  32
ENDBRANCH  24  26
ENDBRANCH   3  22
TORSDOF 5
ENDMDL
MODEL 6
REMARK VINA RESULT:    -8.638      4.518     10.383
REMARK INTER + INTRA:         -12.258
REMARK INTER:                 -11.693
REMARK INTRA:                  -0.565
REMARK UNBOUND:                -1.095
REMARK  Name = ligands_pdb/F3_CHEMBL418010.pdb
REMARK  7 active torsions:
REMARK  status: ('A' for Active; 'I' for Inactive)
REMARK    1  A    between atoms: N2_5  and  C3_7
REMARK    2  A    between atoms: C5_10  and  N3_11
REMARK    3  A    between atoms: C6_13  and  C7_15
REMARK    4  A    between atoms: C12_24  and  O2_25
REMARK    5  A    between atoms: O2_25  and  C13_26
REMARK    6  A    between atoms: C16_34  and  C17_35
REMARK    7  A    between atoms: C18_40  and  C19_41
REMARK                            x       y       z     vdW  Elec       q    Type
REMARK                         _______ _______ _______ _____ _____    ______ ____
ROOT
ATOM      1  C3  F10     1      94.902 120.627 143.060  0.00  0.00    +0.038 A 
ATOM      2  C4  F10     1      95.284 120.074 144.301  0.00  0.00    +0.047 A 
ATOM      3  C5  F10     1      95.791 118.768 144.388  0.00  0.00    +0.035 A 
ATOM      4  C14 F10     1      95.931 118.002 143.220  0.00  0.00    +0.024 A 
ATOM      5  C15 F10     1      95.539 118.532 141.981  0.00  0.00    +0.007 A 
ATOM      6  C16 F10     1      95.017 119.835 141.894  0.00  0.00    -0.029 A 
ATOM      7  C17 F10     1      94.599 120.378 140.530  0.00  0.00    +0.045 C 
ENDROOT
BRANCH   1  11
ATOM      8  C1  F10     1      90.814 122.084 142.616  0.00  0.00    +0.116 A 
ATOM      9  N1  F10     1      92.035 121.554 142.815  0.00  0.00    -0.223 NA
ATOM     10  C2  F10     1      93.086 122.395 142.721  0.00  0.00    +0.220 A 
ATOM     11  N2  F10     1      94.369 121.915 142.962  0.00  0.00    -0.283 N 
ATOM     12  H2  F10     1      95.034 122.649 143.162  0.00  0.00    +0.155 HD
ATOM     13  N4  F10     1      93.010 123.718 142.473  0.00  0.00    -0.214 NA
ATOM     14  C18 F10     1      91.794 124.272 142.270  0.00  0.00    +0.077 A 
ATOM     15  C24 F10     1      90.641 123.449 142.336  0.00  0.00    +0.048 A 
BRANCH  14  16
ATOM     16  C19 F10     1      91.745 125.749 141.984  0.00  0.00    +0.019 A 
ATOM     17  C20 F10     1      90.519 126.458 141.875  0.00  0.00    +0.120 A 
ATOM     18  N5  F10     1      90.426 127.779 141.619  0.00  0.00    -0.263 NA
ATOM     19  C21 F10     1      91.563 128.481 141.454  0.00  0.00    +0.111 A 
ATOM     20  C22 F10     1      92.834 127.892 141.539  0.00  0.00    +0.020 A 
ATOM     21  C23 F10     1      92.926 126.518 141.807  0.00  0.00    +0.013 A 
ENDBRANCH  14  16
ENDBRANCH   1  11
BRANCH   3  22
ATOM     22  N3  F10     1      96.175 118.262 145.657  0.00  0.00    -0.281 N 
ATOM     23  H4  F10     1      97.097 117.847 145.698  0.00  0.00    +0.155 HD
ATOM     24  C6  F10     1      95.469 118.339 146.850  0.00  0.00    +0.252 C 
ATOM     25  O1  F10     1      94.382 118.890 146.916  0.00  0.00    -0.270 OA
BRANCH  24  26
ATOM     26  C7  F10     1      96.163 117.753 148.058  0.00  0.00    +0.079 A 
ATOM     27  C8  F10     1      96.800 118.613 148.982  0.00  0.00    +0.017 A 
ATOM     28  C9  F10     1      97.440 118.102 150.121  0.00  0.00    +0.001 A 
ATOM     29  C10 F10     1      97.456 116.720 150.352  0.00  0.00    +0.004 A 
ATOM     30  C11 F10     1      96.833 115.852 149.445  0.00  0.00    +0.046 A 
ATOM     31  C12 F10     1      96.184 116.357 148.297  0.00  0.00    +0.132 A 
BRANCH  31  32
ATOM     32  O2  F10     1      95.602 115.500 147.382  0.00  0.00    -0.494 OA
ATOM     33  C13 F10     1      95.532 114.073 147.545  0.00  0.00    +0.277 C 
ENDBRANCH  31  32
ENDBRANCH  24  26
ENDBRANCH   3  22
TORSDOF 5
ENDMDL
MODEL 7
REMARK VINA RESULT:    -8.261      3.114      5.460
REMARK INTER + INTRA:         -11.771
REMARK INTER:                 -11.350
REMARK INTRA:                  -0.421
REMARK UNBOUND:                -1.095
REMARK  Name = ligands_pdb/F3_CHEMBL418010.pdb
REMARK  7 active torsions:
REMARK  status: ('A' for Active; 'I' for Inactive)
REMARK    1  A    between atoms: N2_5  and  C3_7
REMARK    2  A    between atoms: C5_10  and  N3_11
REMARK    3  A    between atoms: C6_13  and  C7_15
REMARK    4  A    between atoms: C12_24  and  O2_25
REMARK    5  A    between atoms: O2_25  and  C13_26
REMARK    6  A    between atoms: C16_34  and  C17_35
REMARK    7  A    between atoms: C18_40  and  C19_41
REMARK                            x       y       z     vdW  Elec       q    Type
REMARK                         _______ _______ _______ _____ _____    ______ ____
ROOT
ATOM      1  C3  F10     1      95.311 119.081 144.350  0.00  0.00    +0.038 A 
ATOM      2  C4  F10     1      94.053 119.668 144.099  0.00  0.00    +0.047 A 
ATOM      3  C5  F10     1      93.895 120.647 143.105  0.00  0.00    +0.035 A 
ATOM      4  C14 F10     1      95.006 121.042 142.341  0.00  0.00    +0.024 A 
ATOM      5  C15 F10     1      96.266 120.480 142.593  0.00  0.00    +0.007 A 
ATOM      6  C16 F10     1      96.430 119.509 143.598  0.00  0.00    -0.029 A 
ATOM      7  C17 F10     1      97.815 118.922 143.845  0.00  0.00    +0.045 C 
ENDROOT
BRANCH   1  11
ATOM      8  C1  F10     1      96.022 119.436 148.641  0.00  0.00    +0.116 A 
ATOM      9  N1  F10     1      95.739 119.415 147.325  0.00  0.00    -0.223 NA
ATOM     10  C2  F10     1      95.814 118.219 146.705  0.00  0.00    +0.220 A 
ATOM     11  N2  F10     1      95.488 118.126 145.356  0.00  0.00    -0.283 N 
ATOM     12  H2  F10     1      95.285 117.181 145.063  0.00  0.00    +0.155 HD
ATOM     13  N4  F10     1      96.119 117.047 147.298  0.00  0.00    -0.214 NA
ATOM     14  C18 F10     1      96.406 117.044 148.619  0.00  0.00    +0.077 A 
ATOM     15  C24 F10     1      96.366 118.266 149.337  0.00  0.00    +0.048 A 
BRANCH  14  16
ATOM     16  C19 F10     1      96.755 115.722 149.249  0.00  0.00    +0.019 A 
ATOM     17  C20 F10     1      97.392 115.632 150.516  0.00  0.00    +0.120 A 
ATOM     18  N5  F10     1      97.723 114.471 151.118  0.00  0.00    -0.263 NA
ATOM     19  C21 F10     1      97.438 113.318 150.486  0.00  0.00    +0.111 A 
ATOM     20  C22 F10     1      96.809 113.278 149.232  0.00  0.00    +0.020 A 
ATOM     21  C23 F10     1      96.464 114.487 148.609  0.00  0.00    +0.013 A 
ENDBRANCH  14  16
ENDBRANCH   1  11
BRANCH   3  22
ATOM     22  N3  F10     1      92.607 121.196 142.878  0.00  0.00    -0.281 N 
ATOM     23  H4  F10     1      91.879 120.869 143.500  0.00  0.00    +0.155 HD
ATOM     24  C6  F10     1      92.253 122.176 141.959  0.00  0.00    +0.252 C 
ATOM     25  O1  F10     1      93.077 122.687 141.219  0.00  0.00    -0.270 OA
BRANCH  24  26
ATOM     26  C7  F10     1      90.803 122.602 141.987  0.00  0.00    +0.079 A 
ATOM     27  C8  F10     1      90.461 123.883 142.477  0.00  0.00    +0.017 A 
ATOM     28  C9  F10     1      89.126 124.314 142.501  0.00  0.00    +0.001 A 
ATOM     29  C10 F10     1      88.110 123.468 142.038  0.00  0.00    +0.004 A 
ATOM     30  C11 F10     1      88.430 122.192 141.551  0.00  0.00    +0.046 A 
ATOM     31  C12 F10     1      89.771 121.751 141.519  0.00  0.00    +0.132 A 
BRANCH  31  32
ATOM     32  O2  F10     1      90.084 120.480 141.076  0.00  0.00    -0.494 OA
ATOM     33  C13 F10     1      90.394 120.157 139.709  0.00  0.00    +0.277 C 
ENDBRANCH  31  32
ENDBRANCH  24  26
ENDBRANCH   3  22
TORSDOF 5
ENDMDL
MODEL 8
REMARK VINA RESULT:    -8.251      3.073      6.677
REMARK INTER + INTRA:         -11.757
REMARK INTER:                 -10.781
REMARK INTRA:                  -0.976
REMARK UNBOUND:                -1.095
REMARK  Name = ligands_pdb/F3_CHEMBL418010.pdb
REMARK  7 active torsions:
REMARK  status: ('A' for Active; 'I' for Inactive)
REMARK    1  A    between atoms: N2_5  and  C3_7
REMARK    2  A    between atoms: C5_10  and  N3_11
REMARK    3  A    between atoms: C6_13  and  C7_15
REMARK    4  A    between atoms: C12_24  and  O2_25
REMARK    5  A    between atoms: O2_25  and  C13_26
REMARK    6  A    between atoms: C16_34  and  C17_35
REMARK    7  A    between atoms: C18_40  and  C19_41
REMARK                            x       y       z     vdW  Elec       q    Type
REMARK                         _______ _______ _______ _____ _____    ______ ____
ROOT
ATOM      1  C3  F10     1      98.070 120.842 139.875  0.00  0.00    +0.038 A 
ATOM      2  C4  F10     1      97.344 121.919 139.323  0.00  0.00    +0.047 A 
ATOM      3  C5  F10     1      97.615 122.389 138.029  0.00  0.00    +0.035 A 
ATOM      4  C14 F10     1      98.620 121.772 137.265  0.00  0.00    +0.024 A 
ATOM      5  C15 F10     1      99.362 120.712 137.808  0.00  0.00    +0.007 A 
ATOM      6  C16 F10     1      99.101 120.248 139.110  0.00  0.00    -0.029 A 
ATOM      7  C17 F10     1      99.929 119.096 139.668  0.00  0.00    +0.045 C 
ENDROOT
BRANCH   1  11
ATOM      8  C1  F10     1      95.025 118.194 141.534  0.00  0.00    +0.116 A 
ATOM      9  N1  F10     1      95.962 118.949 140.932  0.00  0.00    -0.223 NA
ATOM     10  C2  F10     1      96.810 119.623 141.737  0.00  0.00    +0.220 A 
ATOM     11  N2  F10     1      97.829 120.383 141.173  0.00  0.00    -0.283 N 
ATOM     12  H2  F10     1      98.571 120.596 141.826  0.00  0.00    +0.155 HD
ATOM     13  N4  F10     1      96.813 119.579 143.085  0.00  0.00    -0.214 NA
ATOM     14  C18 F10     1      95.880 118.827 143.711  0.00  0.00    +0.077 A 
ATOM     15  C24 F10     1      94.941 118.102 142.933  0.00  0.00    +0.048 A 
BRANCH  14  16
ATOM     16  C19 F10     1      95.901 118.809 145.216  0.00  0.00    +0.019 A 
ATOM     17  C20 F10     1      94.725 118.989 145.992  0.00  0.00    +0.120 A 
ATOM     18  N5  F10     1      94.696 118.980 147.340  0.00  0.00    -0.263 NA
ATOM     19  C21 F10     1      95.852 118.792 148.004  0.00  0.00    +0.111 A 
ATOM     20  C22 F10     1      97.078 118.602 147.349  0.00  0.00    +0.020 A 
ATOM     21  C23 F10     1      97.104 118.610 145.946  0.00  0.00    +0.013 A 
ENDBRANCH  14  16
ENDBRANCH   1  11
BRANCH   3  22
ATOM     22  N3  F10     1      96.847 123.465 137.511  0.00  0.00    -0.281 N 
ATOM     23  H4  F10     1      97.311 124.364 137.501  0.00  0.00    +0.155 HD
ATOM     24  C6  F10     1      95.576 123.407 136.956  0.00  0.00    +0.252 C 
ATOM     25  O1  F10     1      94.968 122.354 136.854  0.00  0.00    -0.270 OA
BRANCH  24  26
ATOM     26  C7  F10     1      95.033 124.719 136.436  0.00  0.00    +0.079 A 
ATOM     27  C8  F10     1      95.408 125.168 135.149  0.00  0.00    +0.017 A 
ATOM     28  C9  F10     1      94.909 126.373 134.632  0.00  0.00    +0.001 A 
ATOM     29  C10 F10     1      94.028 127.150 135.395  0.00  0.00    +0.004 A 
ATOM     30  C11 F10     1      93.647 126.722 136.675  0.00  0.00    +0.046 A 
ATOM     31  C12 F10     1      94.141 125.509 137.203  0.00  0.00    +0.132 A 
BRANCH  31  32
ATOM     32  O2  F10     1      93.797 125.104 138.479  0.00  0.00    -0.494 OA
ATOM     33  C13 F10     1      92.479 125.232 139.038  0.00  0.00    +0.277 C 
ENDBRANCH  31  32
ENDBRANCH  24  26
ENDBRANCH   3  22
TORSDOF 5
ENDMDL
MODEL 9
REMARK VINA RESULT:    -8.225      3.727      7.400
REMARK INTER + INTRA:         -11.724
REMARK INTER:                 -10.935
REMARK INTRA:                  -0.789
REMARK UNBOUND:                -1.095
REMARK  Name = ligands_pdb/F3_CHEMBL418010.pdb
REMARK  7 active torsions:
REMARK  status: ('A' for Active; 'I' for Inactive)
REMARK    1  A    between atoms: N2_5  and  C3_7
REMARK    2  A    between atoms: C5_10  and  N3_11
REMARK    3  A    between atoms: C6_13  and  C7_15
REMARK    4  A    between atoms: C12_24  and  O2_25
REMARK    5  A    between atoms: O2_25  and  C13_26
REMARK    6  A    between atoms: C16_34  and  C17_35
REMARK    7  A    between atoms: C18_40  and  C19_41
REMARK                            x       y       z     vdW  Elec       q    Type
REMARK                         _______ _______ _______ _____ _____    ______ ____
ROOT
ATOM      1  C3  F10     1      97.622 120.991 138.967  0.00  0.00    +0.038 A 
ATOM      2  C4  F10     1      97.180 122.274 138.580  0.00  0.00    +0.047 A 
ATOM      3  C5  F10     1      97.446 122.778 137.297  0.00  0.00    +0.035 A 
ATOM      4  C14 F10     1      98.156 121.987 136.379  0.00  0.00    +0.024 A 
ATOM      5  C15 F10     1      98.619 120.718 136.755  0.00  0.00    +0.007 A 
ATOM      6  C16 F10     1      98.365 120.217 138.045  0.00  0.00    -0.029 A 
ATOM      7  C17 F10     1      98.885 118.833 138.420  0.00  0.00    +0.045 C 
ENDROOT
BRANCH   1  11
ATOM      8  C1  F10     1      94.207 118.933 140.738  0.00  0.00    +0.116 A 
ATOM      9  N1  F10     1      95.238 119.515 140.098  0.00  0.00    -0.223 NA
ATOM     10  C2  F10     1      96.275 119.922 140.860  0.00  0.00    +0.220 A 
ATOM     11  N2  F10     1      97.389 120.489 140.250  0.00  0.00    -0.283 N 
ATOM     12  H2  F10     1      98.209 120.483 140.842  0.00  0.00    +0.155 HD
ATOM     13  N4  F10     1      96.374 119.769 142.195  0.00  0.00    -0.214 NA
ATOM     14  C18 F10     1      95.350 119.186 142.859  0.00  0.00    +0.077 A 
ATOM     15  C24 F10     1      94.216 118.746 142.130  0.00  0.00    +0.048 A 
BRANCH  14  16
ATOM     16  C19 F10     1      95.485 119.041 144.351  0.00  0.00    +0.019 A 
ATOM     17  C20 F10     1      94.377 119.179 145.228  0.00  0.00    +0.120 A 
ATOM     18  N5  F10     1      94.451 119.057 146.570  0.00  0.00    -0.263 NA
ATOM     19  C21 F10     1      95.648 118.789 147.124  0.00  0.00    +0.111 A 
ATOM     20  C22 F10     1      96.815 118.629 146.361  0.00  0.00    +0.020 A 
ATOM     21  C23 F10     1      96.734 118.754 144.966  0.00  0.00    +0.013 A 
ENDBRANCH  14  16
ENDBRANCH   1  11
BRANCH   3  22
ATOM     22  N3  F10     1      96.966 124.067 136.950  0.00  0.00    -0.281 N 
ATOM     23  H4  F10     1      97.640 124.817 137.029  0.00  0.00    +0.155 HD
ATOM     24  C6  F10     1      95.714 124.398 136.450  0.00  0.00    +0.252 C 
ATOM     25  O1  F10     1      94.860 123.551 136.247  0.00  0.00    -0.270 OA
BRANCH  24  26
ATOM     26  C7  F10     1      95.511 125.859 136.118  0.00  0.00    +0.079 A 
ATOM     27  C8  F10     1      95.740 126.839 137.111  0.00  0.00    +0.017 A 
ATOM     28  C9  F10     1      95.576 128.203 136.831  0.00  0.00    +0.001 A 
ATOM     29  C10 F10     1      95.174 128.611 135.552  0.00  0.00    +0.004 A 
ATOM     30  C11 F10     1      94.938 127.653 134.555  0.00  0.00    +0.046 A 
ATOM     31  C12 F10     1      95.105 126.278 134.826  0.00  0.00    +0.132 A 
BRANCH  31  32
ATOM     32  O2  F10     1      94.836 125.330 133.857  0.00  0.00    -0.494 OA
ATOM     33  C13 F10     1      94.722 125.623 132.454  0.00  0.00    +0.277 C 
ENDBRANCH  31  32
ENDBRANCH  24  26
ENDBRANCH   3  22
TORSDOF 5
ENDMDL
MODEL 10
REMARK VINA RESULT:    -8.086      3.323      5.647
REMARK INTER + INTRA:         -11.545
REMARK INTER:                 -11.354
REMARK INTRA:                  -0.191
REMARK UNBOUND:                -1.095
REMARK  Name = ligands_pdb/F3_CHEMBL418010.pdb
REMARK  7 active torsions:
REMARK  status: ('A' for Active; 'I' for Inactive)
REMARK    1  A    between atoms: N2_5  and  C3_7
REMARK    2  A    between atoms: C5_10  and  N3_11
REMARK    3  A    between atoms: C6_13  and  C7_15
REMARK    4  A    between atoms: C12_24  and  O2_25
REMARK    5  A    between atoms: O2_25  and  C13_26
REMARK    6  A    between atoms: C16_34  and  C17_35
REMARK    7  A    between atoms: C18_40  and  C19_41
REMARK                            x       y       z     vdW  Elec       q    Type
REMARK                         _______ _______ _______ _____ _____    ______ ____
ROOT
ATOM      1  C3  F10     1      95.321 119.079 144.276  0.00  0.00    +0.038 A 
ATOM      2  C4  F10     1      94.089 119.682 143.944  0.00  0.00    +0.047 A 
ATOM      3  C5  F10     1      94.013 120.686 142.966  0.00  0.00    +0.035 A 
ATOM      4  C14 F10     1      95.181 121.092 142.300  0.00  0.00    +0.024 A 
ATOM      5  C15 F10     1      96.416 120.515 142.633  0.00  0.00    +0.007 A 
ATOM      6  C16 F10     1      96.496 119.518 143.623  0.00  0.00    -0.029 A 
ATOM      7  C17 F10     1      97.856 118.915 143.960  0.00  0.00    +0.045 C 
ENDROOT
BRANCH   1  11
ATOM      8  C1  F10     1      96.224 119.295 148.539  0.00  0.00    +0.116 A 
ATOM      9  N1  F10     1      95.894 119.325 147.235  0.00  0.00    -0.223 NA
ATOM     10  C2  F10     1      95.799 118.135 146.604  0.00  0.00    +0.220 A 
ATOM     11  N2  F10     1      95.415 118.099 145.268  0.00  0.00    -0.283 N 
ATOM     12  H2  F10     1      95.087 117.189 144.975  0.00  0.00    +0.155 HD
ATOM     13  N4  F10     1      95.978 116.928 147.178  0.00  0.00    -0.214 NA
ATOM     14  C18 F10     1      96.310 116.874 148.487  0.00  0.00    +0.077 A 
ATOM     15  C24 F10     1      96.447 118.084 149.214  0.00  0.00    +0.048 A 
BRANCH  14  16
ATOM     16  C19 F10     1      96.516 115.512 149.094  0.00  0.00    +0.019 A 
ATOM     17  C20 F10     1      97.075 115.338 150.388  0.00  0.00    +0.120 A 
ATOM     18  N5  F10     1      97.277 114.139 150.972  0.00  0.00    -0.263 NA
ATOM     19  C21 F10     1      96.933 113.029 150.292  0.00  0.00    +0.111 A 
ATOM     20  C22 F10     1      96.370 113.074 149.007  0.00  0.00    +0.020 A 
ATOM     21  C23 F10     1      96.160 114.323 148.404  0.00  0.00    +0.013 A 
ENDBRANCH  14  16
ENDBRANCH   1  11
BRANCH   3  22
ATOM     22  N3  F10     1      92.749 121.251 142.655  0.00  0.00    -0.281 N 
ATOM     23  H4  F10     1      91.964 120.615 142.712  0.00  0.00    +0.155 HD
ATOM     24  C6  F10     1      92.463 122.577 142.359  0.00  0.00    +0.252 C 
ATOM     25  O1  F10     1      93.333 123.432 142.343  0.00  0.00    -0.270 OA
BRANCH  24  26
ATOM     26  C7  F10     1      91.003 122.891 142.122  0.00  0.00    +0.079 A 
ATOM     27  C8  F10     1      90.214 122.006 141.354  0.00  0.00    +0.017 A 
ATOM     28  C9  F10     1      88.853 122.262 141.130  0.00  0.00    +0.001 A 
ATOM     29  C10 F10     1      88.260 123.411 141.668  0.00  0.00    +0.004 A 
ATOM     30  C11 F10     1      89.028 124.303 142.430  0.00  0.00    +0.046 A 
ATOM     31  C12 F10     1      90.397 124.052 142.665  0.00  0.00    +0.132 A 
BRANCH  31  32
ATOM     32  O2  F10     1      91.165 124.949 143.383  0.00  0.00    -0.494 OA
ATOM     33  C13 F10     1      90.636 126.101 144.061  0.00  0.00    +0.277 C 
ENDBRANCH  31  32
ENDBRANCH  24  26
ENDBRANCH   3  22
TORSDOF 5
ENDMDL
