MODEL 1
REMARK VINA RESULT:    -7.559      0.000      0.000
REMARK INTER + INTRA:         -14.318
REMARK INTER:                 -12.420
REMARK INTRA:                  -1.897
REMARK UNBOUND:                -1.897
REMARK  Name = ligands_pdb/F3_CHEMBL27143.pdb
REMARK  14 active torsions:
REMARK  status: ('A' for Active; 'I' for Inactive)
REMARK    1  A    between atoms: N2_6  and  C3_7
REMARK    2  A    between atoms: C3_7  and  C4_10
REMARK    3  A    between atoms: C4_10  and  O1_13
REMARK    4  A    between atoms: O1_13  and  C5_14
REMARK    5  A    between atoms: C8_19  and  C9_20
REMARK    6  A    between atoms: N3_22  and  C10_24
REMARK    7  A    between atoms: C10_24  and  C11_26
REMARK    8  A    between atoms: C10_24  and  C13_33
REMARK    9  A    between atoms: C11_26  and  O4_28
REMARK   10  A    between atoms: O4_28  and  C12_29
REMARK   11  A    between atoms: C13_33  and  C14_36
REMARK   12  A    between atoms: C14_36  and  C15_38
REMARK   13  A    between atoms: C14_36  and  C16_42
REMARK   14  A    between atoms: C17_46  and  C18_47
REMARK                            x       y       z     vdW  Elec       q    Type
REMARK                         _______ _______ _______ _____ _____    ______ ____
ROOT
ATOM      1  C5  F04     1      95.992 118.737 145.803  0.00  0.00    +0.121 A 
ATOM      2  C6  F04     1      94.663 119.095 146.089  0.00  0.00    +0.046 A 
ATOM      3  C7  F04     1      93.779 119.399 145.043  0.00  0.00    +0.017 A 
ATOM      4  C8  F04     1      94.196 119.345 143.695  0.00  0.00    +0.045 A 
ATOM      5  C17 F04     1      95.538 118.966 143.395  0.00  0.00    -0.002 A 
ATOM      6  C24 F04     1      96.416 118.680 144.468  0.00  0.00    +0.055 A 
ENDROOT
BRANCH   5   7
ATOM      7  C18 F04     1      96.053 118.809 141.999  0.00  0.00    -0.017 A 
ATOM      8  C19 F04     1      95.463 117.878 141.110  0.00  0.00    +0.008 A 
ATOM      9  C20 F04     1      95.937 117.735 139.796  0.00  0.00    +0.001 A 
ATOM     10  C21 F04     1      97.002 118.529 139.342  0.00  0.00    +0.000 A 
ATOM     11  C22 F04     1      97.589 119.471 140.201  0.00  0.00    +0.001 A 
ATOM     12  C23 F04     1      97.112 119.613 141.515  0.00  0.00    +0.008 A 
ENDBRANCH   5   7
BRANCH   4  13
ATOM     13  C9  F04     1      93.226 119.757 142.614  0.00  0.00    +0.245 C 
ATOM     14  O2  F04     1      93.169 120.896 142.184  0.00  0.00    -0.270 OA
ATOM     15  N3  F04     1      92.354 118.771 142.180  0.00  0.00    -0.298 N 
ATOM     16  H9  F04     1      92.438 117.850 142.592  0.00  0.00    +0.150 HD
BRANCH  15  17
ATOM     17  C10 F04     1      91.322 118.964 141.144  0.00  0.00    +0.182 C 
BRANCH  17  18
ATOM     18  C11 F04     1      90.114 118.084 141.494  0.00  0.00    +0.327 C 
ATOM     19  O3  F04     1      89.047 118.122 140.900  0.00  0.00    -0.249 OA
BRANCH  18  20
ATOM     20  O4  F04     1      90.370 117.299 142.583  0.00  0.00    -0.467 OA
ATOM     21  C12 F04     1      89.564 116.130 142.808  0.00  0.00    +0.280 C 
ENDBRANCH  18  20
ENDBRANCH  17  18
BRANCH  17  22
ATOM     22  C13 F04     1      91.833 118.604 139.724  0.00  0.00    +0.036 C 
BRANCH  22  23
ATOM     23  C14 F04     1      92.090 119.814 138.784  0.00  0.00    -0.015 C 
ATOM     24  C15 F04     1      91.200 121.010 139.192  0.00  0.00    +0.007 C 
ATOM     25  C16 F04     1      93.577 120.240 138.764  0.00  0.00    +0.007 C 
ENDBRANCH  22  23
ENDBRANCH  17  22
ENDBRANCH  15  17
ENDBRANCH   4  13
BRANCH   1  26
ATOM     26  O1  F04     1      96.909 118.427 146.786  0.00  0.00    -0.490 OA
BRANCH  26  27
ATOM     27  C4  F04     1      96.568 118.335 148.180  0.00  0.00    +0.250 C 
BRANCH  27  28
ATOM     28  C3  F04     1      97.539 117.342 148.842  0.00  0.00    +0.163 C 
BRANCH  28  32
ATOM     29  C1  F04     1      95.620 114.327 149.445  0.00  0.00    +0.130 A 
ATOM     30  N1  F04     1      96.306 114.417 150.629  0.00  0.00    -0.244 NA
ATOM     31  C2  F04     1      97.050 115.501 150.529  0.00  0.00    +0.199 A 
ATOM     32  N2  F04     1      96.873 116.121 149.309  0.00  0.00    -0.334 N 
ATOM     33  C25 F04     1      95.951 115.368 148.615  0.00  0.00    +0.107 A 
ENDBRANCH  28  32
ENDBRANCH  27  28
ENDBRANCH  26  27
ENDBRANCH   1  26
TORSDOF 11
ENDMDL
MODEL 2
REMARK VINA RESULT:    -7.557      2.016      4.472
REMARK INTER + INTRA:         -14.314
REMARK INTER:                 -11.897
REMARK INTRA:                  -2.417
REMARK UNBOUND:                -1.897
REMARK  Name = ligands_pdb/F3_CHEMBL27143.pdb
REMARK  14 active torsions:
REMARK  status: ('A' for Active; 'I' for Inactive)
REMARK    1  A    between atoms: N2_6  and  C3_7
REMARK    2  A    between atoms: C3_7  and  C4_10
REMARK    3  A    between atoms: C4_10  and  O1_13
REMARK    4  A    between atoms: O1_13  and  C5_14
REMARK    5  A    between atoms: C8_19  and  C9_20
REMARK    6  A    between atoms: N3_22  and  C10_24
REMARK    7  A    between atoms: C10_24  and  C11_26
REMARK    8  A    between atoms: C10_24  and  C13_33
REMARK    9  A    between atoms: C11_26  and  O4_28
REMARK   10  A    between atoms: O4_28  and  C12_29
REMARK   11  A    between atoms: C13_33  and  C14_36
REMARK   12  A    between atoms: C14_36  and  C15_38
REMARK   13  A    between atoms: C14_36  and  C16_42
REMARK   14  A    between atoms: C17_46  and  C18_47
REMARK                            x       y       z     vdW  Elec       q    Type
REMARK                         _______ _______ _______ _____ _____    ______ ____
ROOT
ATOM      1  C5  F04     1      95.696 118.927 145.804  0.00  0.00    +0.121 A 
ATOM      2  C6  F04     1      96.758 118.650 144.925  0.00  0.00    +0.046 A 
ATOM      3  C7  F04     1      96.531 118.614 143.541  0.00  0.00    +0.017 A 
ATOM      4  C8  F04     1      95.248 118.859 143.005  0.00  0.00    +0.045 A 
ATOM      5  C17 F04     1      94.168 119.158 143.888  0.00  0.00    -0.002 A 
ATOM      6  C24 F04     1      94.419 119.173 145.281  0.00  0.00    +0.055 A 
ENDROOT
BRANCH   5   7
ATOM      7  C18 F04     1      92.792 119.504 143.413  0.00  0.00    -0.017 A 
ATOM      8  C19 F04     1      92.427 120.850 143.170  0.00  0.00    +0.008 A 
ATOM      9  C20 F04     1      91.140 121.178 142.714  0.00  0.00    +0.001 A 
ATOM     10  C21 F04     1      90.197 120.164 142.482  0.00  0.00    +0.000 A 
ATOM     11  C22 F04     1      90.544 118.822 142.699  0.00  0.00    +0.001 A 
ATOM     12  C23 F04     1      91.833 118.496 143.153  0.00  0.00    +0.008 A 
ENDBRANCH   5   7
BRANCH   4  13
ATOM     13  C9  F04     1      95.043 118.731 141.514  0.00  0.00    +0.245 C 
ATOM     14  O2  F04     1      94.883 117.655 140.965  0.00  0.00    -0.270 OA
ATOM     15  N3  F04     1      95.110 119.913 140.793  0.00  0.00    -0.298 N 
ATOM     16  H9  F04     1      95.267 120.771 141.306  0.00  0.00    +0.150 HD
BRANCH  15  17
ATOM     17  C10 F04     1      94.951 120.009 139.330  0.00  0.00    +0.182 C 
BRANCH  17  18
ATOM     18  C11 F04     1      96.220 120.646 138.746  0.00  0.00    +0.327 C 
ATOM     19  O3  F04     1      96.715 120.325 137.676  0.00  0.00    -0.249 OA
BRANCH  18  20
ATOM     20  O4  F04     1      96.750 121.572 139.601  0.00  0.00    -0.467 OA
ATOM     21  C12 F04     1      98.172 121.594 139.814  0.00  0.00    +0.280 C 
ENDBRANCH  18  20
ENDBRANCH  17  18
BRANCH  17  22
ATOM     22  C13 F04     1      93.713 120.851 138.923  0.00  0.00    +0.036 C 
BRANCH  22  23
ATOM     23  C14 F04     1      92.357 120.357 139.495  0.00  0.00    -0.015 C 
ATOM     24  C15 F04     1      91.190 121.175 138.897  0.00  0.00    +0.007 C 
ATOM     25  C16 F04     1      92.128 118.847 139.248  0.00  0.00    +0.007 C 
ENDBRANCH  22  23
ENDBRANCH  17  22
ENDBRANCH  15  17
ENDBRANCH   4  13
BRANCH   1  26
ATOM     26  O1  F04     1      95.855 118.978 147.172  0.00  0.00    -0.490 OA
BRANCH  26  27
ATOM     27  C4  F04     1      96.708 118.077 147.901  0.00  0.00    +0.250 C 
BRANCH  27  28
ATOM     28  C3  F04     1      96.020 116.702 147.944  0.00  0.00    +0.163 C 
BRANCH  28  32
ATOM     29  C1  F04     1      97.415 115.159 150.913  0.00  0.00    +0.130 A 
ATOM     30  N1  F04     1      96.343 114.331 150.691  0.00  0.00    -0.244 NA
ATOM     31  C2  F04     1      95.749 114.799 149.611  0.00  0.00    +0.199 A 
ATOM     32  N2  F04     1      96.399 115.913 149.122  0.00  0.00    -0.334 N 
ATOM     33  C25 F04     1      97.471 116.142 149.957  0.00  0.00    +0.107 A 
ENDBRANCH  28  32
ENDBRANCH  27  28
ENDBRANCH  26  27
ENDBRANCH   1  26
TORSDOF 11
ENDMDL
MODEL 3
REMARK VINA RESULT:    -7.480      1.290      1.965
REMARK INTER + INTRA:         -14.187
REMARK INTER:                 -11.961
REMARK INTRA:                  -2.226
REMARK UNBOUND:                -1.897
REMARK  Name = ligands_pdb/F3_CHEMBL27143.pdb
REMARK  14 active torsions:
REMARK  status: ('A' for Active; 'I' for Inactive)
REMARK    1  A    between atoms: N2_6  and  C3_7
REMARK    2  A    between atoms: C3_7  and  C4_10
REMARK    3  A    between atoms: C4_10  and  O1_13
REMARK    4  A    between atoms: O1_13  and  C5_14
REMARK    5  A    between atoms: C8_19  and  C9_20
REMARK    6  A    between atoms: N3_22  and  C10_24
REMARK    7  A    between atoms: C10_24  and  C11_26
REMARK    8  A    between atoms: C10_24  and  C13_33
REMARK    9  A    between atoms: C11_26  and  O4_28
REMARK   10  A    between atoms: O4_28  and  C12_29
REMARK   11  A    between atoms: C13_33  and  C14_36
REMARK   12  A    between atoms: C14_36  and  C15_38
REMARK   13  A    between atoms: C14_36  and  C16_42
REMARK   14  A    between atoms: C17_46  and  C18_47
REMARK                            x       y       z     vdW  Elec       q    Type
REMARK                         _______ _______ _______ _____ _____    ______ ____
ROOT
ATOM      1  C5  F04     1      96.037 118.662 145.860  0.00  0.00    +0.121 A 
ATOM      2  C6  F04     1      94.644 118.761 146.023  0.00  0.00    +0.046 A 
ATOM      3  C7  F04     1      93.844 119.211 144.961  0.00  0.00    +0.017 A 
ATOM      4  C8  F04     1      94.413 119.562 143.717  0.00  0.00    +0.045 A 
ATOM      5  C17 F04     1      95.823 119.447 143.538  0.00  0.00    -0.002 A 
ATOM      6  C24 F04     1      96.610 119.007 144.629  0.00  0.00    +0.055 A 
ENDROOT
BRANCH   5   7
ATOM      7  C18 F04     1      96.510 119.724 142.238  0.00  0.00    -0.017 A 
ATOM      8  C19 F04     1      97.104 120.984 141.986  0.00  0.00    +0.008 A 
ATOM      9  C20 F04     1      97.758 121.244 140.771  0.00  0.00    +0.001 A 
ATOM     10  C21 F04     1      97.842 120.245 139.789  0.00  0.00    +0.000 A 
ATOM     11  C22 F04     1      97.276 118.982 140.026  0.00  0.00    +0.001 A 
ATOM     12  C23 F04     1      96.623 118.724 141.242  0.00  0.00    +0.008 A 
ENDBRANCH   5   7
BRANCH   4  13
ATOM     13  C9  F04     1      93.516 120.112 142.634  0.00  0.00    +0.245 C 
ATOM     14  O2  F04     1      93.070 121.246 142.668  0.00  0.00    -0.270 OA
ATOM     15  N3  F04     1      93.178 119.226 141.624  0.00  0.00    -0.298 N 
ATOM     16  H9  F04     1      93.564 118.291 141.666  0.00  0.00    +0.150 HD
BRANCH  15  17
ATOM     17  C10 F04     1      92.305 119.555 140.481  0.00  0.00    +0.182 C 
BRANCH  17  18
ATOM     18  C11 F04     1      91.273 118.431 140.321  0.00  0.00    +0.327 C 
ATOM     19  O3  F04     1      90.826 117.776 141.250  0.00  0.00    -0.249 OA
BRANCH  18  20
ATOM     20  O4  F04     1      90.963 118.224 139.005  0.00  0.00    -0.467 OA
ATOM     21  C12 F04     1      89.630 118.509 138.547  0.00  0.00    +0.280 C 
ENDBRANCH  18  20
ENDBRANCH  17  18
BRANCH  17  22
ATOM     22  C13 F04     1      93.100 119.724 139.159  0.00  0.00    +0.036 C 
BRANCH  22  23
ATOM     23  C14 F04     1      94.022 120.971 139.093  0.00  0.00    -0.015 C 
ATOM     24  C15 F04     1      94.826 120.977 137.773  0.00  0.00    +0.007 C 
ATOM     25  C16 F04     1      93.235 122.295 139.241  0.00  0.00    +0.007 C 
ENDBRANCH  22  23
ENDBRANCH  17  22
ENDBRANCH  15  17
ENDBRANCH   4  13
BRANCH   1  26
ATOM     26  O1  F04     1      96.875 118.227 146.865  0.00  0.00    -0.490 OA
BRANCH  26  27
ATOM     27  C4  F04     1      96.404 117.792 148.152  0.00  0.00    +0.250 C 
BRANCH  27  28
ATOM     28  C3  F04     1      97.446 116.824 148.738  0.00  0.00    +0.163 C 
BRANCH  28  32
ATOM     29  C1  F04     1      95.946 113.562 148.242  0.00  0.00    +0.130 A 
ATOM     30  N1  F04     1      96.921 113.243 149.152  0.00  0.00    -0.244 NA
ATOM     31  C2  F04     1      97.544 114.374 149.419  0.00  0.00    +0.199 A 
ATOM     32  N2  F04     1      97.006 115.425 148.704  0.00  0.00    -0.334 N 
ATOM     33  C25 F04     1      95.977 114.902 147.951  0.00  0.00    +0.107 A 
ENDBRANCH  28  32
ENDBRANCH  27  28
ENDBRANCH  26  27
ENDBRANCH   1  26
TORSDOF 11
ENDMDL
MODEL 4
REMARK VINA RESULT:    -7.237      2.057      2.939
REMARK INTER + INTRA:         -13.788
REMARK INTER:                 -11.632
REMARK INTRA:                  -2.156
REMARK UNBOUND:                -1.897
REMARK  Name = ligands_pdb/F3_CHEMBL27143.pdb
REMARK  14 active torsions:
REMARK  status: ('A' for Active; 'I' for Inactive)
REMARK    1  A    between atoms: N2_6  and  C3_7
REMARK    2  A    between atoms: C3_7  and  C4_10
REMARK    3  A    between atoms: C4_10  and  O1_13
REMARK    4  A    between atoms: O1_13  and  C5_14
REMARK    5  A    between atoms: C8_19  and  C9_20
REMARK    6  A    between atoms: N3_22  and  C10_24
REMARK    7  A    between atoms: C10_24  and  C11_26
REMARK    8  A    between atoms: C10_24  and  C13_33
REMARK    9  A    between atoms: C11_26  and  O4_28
REMARK   10  A    between atoms: O4_28  and  C12_29
REMARK   11  A    between atoms: C13_33  and  C14_36
REMARK   12  A    between atoms: C14_36  and  C15_38
REMARK   13  A    between atoms: C14_36  and  C16_42
REMARK   14  A    between atoms: C17_46  and  C18_47
REMARK                            x       y       z     vdW  Elec       q    Type
REMARK                         _______ _______ _______ _____ _____    ______ ____
ROOT
ATOM      1  C5  F04     1      95.410 118.209 145.764  0.00  0.00    +0.121 A 
ATOM      2  C6  F04     1      94.558 119.271 146.113  0.00  0.00    +0.046 A 
ATOM      3  C7  F04     1      94.219 120.242 145.159  0.00  0.00    +0.017 A 
ATOM      4  C8  F04     1      94.714 120.170 143.838  0.00  0.00    +0.045 A 
ATOM      5  C17 F04     1      95.565 119.086 143.469  0.00  0.00    -0.002 A 
ATOM      6  C24 F04     1      95.905 118.128 144.455  0.00  0.00    +0.055 A 
ENDROOT
BRANCH   5   7
ATOM      7  C18 F04     1      96.079 118.883 142.079  0.00  0.00    -0.017 A 
ATOM      8  C19 F04     1      97.308 119.455 141.671  0.00  0.00    +0.008 A 
ATOM      9  C20 F04     1      97.799 119.258 140.370  0.00  0.00    +0.001 A 
ATOM     10  C21 F04     1      97.076 118.474 139.456  0.00  0.00    +0.000 A 
ATOM     11  C22 F04     1      95.865 117.883 139.847  0.00  0.00    +0.001 A 
ATOM     12  C23 F04     1      95.376 118.080 141.149  0.00  0.00    +0.008 A 
ENDBRANCH   5   7
BRANCH   4  13
ATOM     13  C9  F04     1      94.380 121.282 142.873  0.00  0.00    +0.245 C 
ATOM     14  O2  F04     1      95.134 122.217 142.665  0.00  0.00    -0.270 OA
ATOM     15  N3  F04     1      93.131 121.209 142.278  0.00  0.00    -0.298 N 
ATOM     16  H9  F04     1      92.543 120.417 142.508  0.00  0.00    +0.150 HD
BRANCH  15  17
ATOM     17  C10 F04     1      92.603 122.196 141.317  0.00  0.00    +0.182 C 
BRANCH  17  18
ATOM     18  C11 F04     1      91.452 122.957 141.988  0.00  0.00    +0.327 C 
ATOM     19  O3  F04     1      90.481 122.417 142.497  0.00  0.00    -0.249 OA
BRANCH  18  20
ATOM     20  O4  F04     1      91.628 124.309 141.894  0.00  0.00    -0.467 OA
ATOM     21  C12 F04     1      92.660 124.937 142.676  0.00  0.00    +0.280 C 
ENDBRANCH  18  20
ENDBRANCH  17  18
BRANCH  17  22
ATOM     22  C13 F04     1      92.095 121.536 140.008  0.00  0.00    +0.036 C 
BRANCH  22  23
ATOM     23  C14 F04     1      92.932 120.328 139.506  0.00  0.00    -0.015 C 
ATOM     24  C15 F04     1      92.005 119.228 138.940  0.00  0.00    +0.007 C 
ATOM     25  C16 F04     1      93.980 120.737 138.444  0.00  0.00    +0.007 C 
ENDBRANCH  22  23
ENDBRANCH  17  22
ENDBRANCH  15  17
ENDBRANCH   4  13
BRANCH   1  26
ATOM     26  O1  F04     1      95.779 117.224 146.656  0.00  0.00    -0.490 OA
BRANCH  26  27
ATOM     27  C4  F04     1      96.605 117.473 147.807  0.00  0.00    +0.250 C 
BRANCH  27  28
ATOM     28  C3  F04     1      96.039 116.659 148.983  0.00  0.00    +0.163 C 
BRANCH  28  32
ATOM     29  C1  F04     1      96.284 113.069 148.545  0.00  0.00    +0.130 A 
ATOM     30  N1  F04     1      97.535 113.338 149.041  0.00  0.00    -0.244 NA
ATOM     31  C2  F04     1      97.564 114.640 149.249  0.00  0.00    +0.199 A 
ATOM     32  N2  F04     1      96.368 115.232 148.898  0.00  0.00    -0.334 N 
ATOM     33  C25 F04     1      95.546 114.221 148.450  0.00  0.00    +0.107 A 
ENDBRANCH  28  32
ENDBRANCH  27  28
ENDBRANCH  26  27
ENDBRANCH   1  26
TORSDOF 11
ENDMDL
MODEL 5
REMARK VINA RESULT:    -7.189      2.221      4.292
REMARK INTER + INTRA:         -13.710
REMARK INTER:                 -12.291
REMARK INTRA:                  -1.419
REMARK UNBOUND:                -1.897
REMARK  Name = ligands_pdb/F3_CHEMBL27143.pdb
REMARK  14 active torsions:
REMARK  status: ('A' for Active; 'I' for Inactive)
REMARK    1  A    between atoms: N2_6  and  C3_7
REMARK    2  A    between atoms: C3_7  and  C4_10
REMARK    3  A    between atoms: C4_10  and  O1_13
REMARK    4  A    between atoms: O1_13  and  C5_14
REMARK    5  A    between atoms: C8_19  and  C9_20
REMARK    6  A    between atoms: N3_22  and  C10_24
REMARK    7  A    between atoms: C10_24  and  C11_26
REMARK    8  A    between atoms: C10_24  and  C13_33
REMARK    9  A    between atoms: C11_26  and  O4_28
REMARK   10  A    between atoms: O4_28  and  C12_29
REMARK   11  A    between atoms: C13_33  and  C14_36
REMARK   12  A    between atoms: C14_36  and  C15_38
REMARK   13  A    between atoms: C14_36  and  C16_42
REMARK   14  A    between atoms: C17_46  and  C18_47
REMARK                            x       y       z     vdW  Elec       q    Type
REMARK                         _______ _______ _______ _____ _____    ______ ____
ROOT
ATOM      1  C5  F04     1      95.657 118.575 146.052  0.00  0.00    +0.121 A 
ATOM      2  C6  F04     1      96.969 118.534 145.547  0.00  0.00    +0.046 A 
ATOM      3  C7  F04     1      97.254 119.089 144.291  0.00  0.00    +0.017 A 
ATOM      4  C8  F04     1      96.244 119.701 143.516  0.00  0.00    +0.045 A 
ATOM      5  C17 F04     1      94.914 119.763 144.028  0.00  0.00    -0.002 A 
ATOM      6  C24 F04     1      94.648 119.181 145.291  0.00  0.00    +0.055 A 
ENDROOT
BRANCH   5   7
ATOM      7  C18 F04     1      93.794 120.454 143.317  0.00  0.00    -0.017 A 
ATOM      8  C19 F04     1      92.578 119.778 143.052  0.00  0.00    +0.008 A 
ATOM      9  C20 F04     1      91.520 120.426 142.394  0.00  0.00    +0.001 A 
ATOM     10  C21 F04     1      91.653 121.768 142.001  0.00  0.00    +0.000 A 
ATOM     11  C22 F04     1      92.842 122.462 142.272  0.00  0.00    +0.001 A 
ATOM     12  C23 F04     1      93.899 121.812 142.931  0.00  0.00    +0.008 A 
ENDBRANCH   5   7
BRANCH   4  13
ATOM     13  C9  F04     1      96.591 120.213 142.139  0.00  0.00    +0.245 C 
ATOM     14  O2  F04     1      97.099 121.306 141.956  0.00  0.00    -0.270 OA
ATOM     15  N3  F04     1      96.238 119.389 141.083  0.00  0.00    -0.298 N 
ATOM     16  H9  F04     1      95.799 118.503 141.301  0.00  0.00    +0.150 HD
BRANCH  15  17
ATOM     17  C10 F04     1      96.473 119.704 139.661  0.00  0.00    +0.182 C 
BRANCH  17  18
ATOM     18  C11 F04     1      95.125 120.042 139.011  0.00  0.00    +0.327 C 
ATOM     19  O3  F04     1      95.008 120.572 137.916  0.00  0.00    -0.249 OA
BRANCH  18  20
ATOM     20  O4  F04     1      94.082 119.726 139.836  0.00  0.00    -0.467 OA
ATOM     21  C12 F04     1      92.985 118.955 139.313  0.00  0.00    +0.280 C 
ENDBRANCH  18  20
ENDBRANCH  17  18
BRANCH  17  22
ATOM     22  C13 F04     1      97.138 118.529 138.897  0.00  0.00    +0.036 C 
BRANCH  22  23
ATOM     23  C14 F04     1      98.554 118.823 138.330  0.00  0.00    -0.015 C 
ATOM     24  C15 F04     1      98.457 119.729 137.081  0.00  0.00    +0.007 C 
ATOM     25  C16 F04     1      99.488 119.467 139.382  0.00  0.00    +0.007 C 
ENDBRANCH  22  23
ENDBRANCH  17  22
ENDBRANCH  15  17
ENDBRANCH   4  13
BRANCH   1  26
ATOM     26  O1  F04     1      95.313 118.048 147.279  0.00  0.00    -0.490 OA
BRANCH  26  27
ATOM     27  C4  F04     1      96.264 117.438 148.169  0.00  0.00    +0.250 C 
BRANCH  27  28
ATOM     28  C3  F04     1      96.120 115.911 148.044  0.00  0.00    +0.163 C 
BRANCH  28  32
ATOM     29  C1  F04     1      96.848 113.663 150.793  0.00  0.00    +0.130 A 
ATOM     30  N1  F04     1      97.404 114.822 151.275  0.00  0.00    -0.244 NA
ATOM     31  C2  F04     1      97.192 115.733 150.344  0.00  0.00    +0.199 A 
ATOM     32  N2  F04     1      96.518 115.200 149.264  0.00  0.00    -0.334 N 
ATOM     33  C25 F04     1      96.295 113.872 149.555  0.00  0.00    +0.107 A 
ENDBRANCH  28  32
ENDBRANCH  27  28
ENDBRANCH  26  27
ENDBRANCH   1  26
TORSDOF 11
ENDMDL
MODEL 6
REMARK VINA RESULT:    -7.169      3.531      8.464
REMARK INTER + INTRA:         -13.677
REMARK INTER:                 -10.923
REMARK INTRA:                  -2.754
REMARK UNBOUND:                -1.897
REMARK  Name = ligands_pdb/F3_CHEMBL27143.pdb
REMARK  14 active torsions:
REMARK  status: ('A' for Active; 'I' for Inactive)
REMARK    1  A    between atoms: N2_6  and  C3_7
REMARK    2  A    between atoms: C3_7  and  C4_10
REMARK    3  A    between atoms: C4_10  and  O1_13
REMARK    4  A    between atoms: O1_13  and  C5_14
REMARK    5  A    between atoms: C8_19  and  C9_20
REMARK    6  A    between atoms: N3_22  and  C10_24
REMARK    7  A    between atoms: C10_24  and  C11_26
REMARK    8  A    between atoms: C10_24  and  C13_33
REMARK    9  A    between atoms: C11_26  and  O4_28
REMARK   10  A    between atoms: O4_28  and  C12_29
REMARK   11  A    between atoms: C13_33  and  C14_36
REMARK   12  A    between atoms: C14_36  and  C15_38
REMARK   13  A    between atoms: C14_36  and  C16_42
REMARK   14  A    between atoms: C17_46  and  C18_47
REMARK                            x       y       z     vdW  Elec       q    Type
REMARK                         _______ _______ _______ _____ _____    ______ ____
ROOT
ATOM      1  C5  F04     1      97.839 120.334 138.781  0.00  0.00    +0.121 A 
ATOM      2  C6  F04     1      98.416 120.613 140.032  0.00  0.00    +0.046 A 
ATOM      3  C7  F04     1      97.600 120.747 141.166  0.00  0.00    +0.017 A 
ATOM      4  C8  F04     1      96.199 120.600 141.078  0.00  0.00    +0.045 A 
ATOM      5  C17 F04     1      95.606 120.300 139.816  0.00  0.00    -0.002 A 
ATOM      6  C24 F04     1      96.449 120.185 138.683  0.00  0.00    +0.055 A 
ENDROOT
BRANCH   5   7
ATOM      7  C18 F04     1      94.142 120.052 139.635  0.00  0.00    -0.017 A 
ATOM      8  C19 F04     1      93.624 118.735 139.641  0.00  0.00    +0.008 A 
ATOM      9  C20 F04     1      92.249 118.499 139.482  0.00  0.00    +0.001 A 
ATOM     10  C21 F04     1      91.363 119.578 139.326  0.00  0.00    +0.000 A 
ATOM     11  C22 F04     1      91.854 120.893 139.336  0.00  0.00    +0.001 A 
ATOM     12  C23 F04     1      93.230 121.126 139.497  0.00  0.00    +0.008 A 
ENDBRANCH   5   7
BRANCH   4  13
ATOM     13  C9  F04     1      95.362 120.831 142.314  0.00  0.00    +0.245 C 
ATOM     14  O2  F04     1      94.927 121.929 142.614  0.00  0.00    -0.270 OA
ATOM     15  N3  F04     1      95.168 119.724 143.125  0.00  0.00    -0.298 N 
ATOM     16  H9  F04     1      95.574 118.845 142.831  0.00  0.00    +0.150 HD
BRANCH  15  17
ATOM     17  C10 F04     1      94.395 119.735 144.382  0.00  0.00    +0.182 C 
BRANCH  17  18
ATOM     18  C11 F04     1      95.257 119.105 145.485  0.00  0.00    +0.327 C 
ATOM     19  O3  F04     1      96.392 118.687 145.311  0.00  0.00    -0.249 OA
BRANCH  18  20
ATOM     20  O4  F04     1      94.572 119.023 146.665  0.00  0.00    -0.467 OA
ATOM     21  C12 F04     1      95.302 119.071 147.903  0.00  0.00    +0.280 C 
ENDBRANCH  18  20
ENDBRANCH  17  18
BRANCH  17  22
ATOM     22  C13 F04     1      93.058 118.958 144.261  0.00  0.00    +0.036 C 
BRANCH  22  23
ATOM     23  C14 F04     1      92.185 119.328 143.031  0.00  0.00    -0.015 C 
ATOM     24  C15 F04     1      90.999 118.346 142.898  0.00  0.00    +0.007 C 
ATOM     25  C16 F04     1      91.665 120.784 143.093  0.00  0.00    +0.007 C 
ENDBRANCH  22  23
ENDBRANCH  17  22
ENDBRANCH  15  17
ENDBRANCH   4  13
BRANCH   1  26
ATOM     26  O1  F04     1      98.587 120.190 137.631  0.00  0.00    -0.490 OA
BRANCH  26  27
ATOM     27  C4  F04     1      98.379 120.986 136.451  0.00  0.00    +0.250 C 
BRANCH  27  28
ATOM     28  C3  F04     1      98.949 122.390 136.718  0.00  0.00    +0.163 C 
BRANCH  28  32
ATOM     29  C1  F04     1      96.007 124.493 136.961  0.00  0.00    +0.130 A 
ATOM     30  N1  F04     1      96.895 125.235 137.698  0.00  0.00    -0.244 NA
ATOM     31  C2  F04     1      98.028 124.559 137.676  0.00  0.00    +0.199 A 
ATOM     32  N2  F04     1      97.903 123.393 136.949  0.00  0.00    -0.334 N 
ATOM     33  C25 F04     1      96.606 123.353 136.488  0.00  0.00    +0.107 A 
ENDBRANCH  28  32
ENDBRANCH  27  28
ENDBRANCH  26  27
ENDBRANCH   1  26
TORSDOF 11
ENDMDL
MODEL 7
REMARK VINA RESULT:    -7.165      2.099      3.615
REMARK INTER + INTRA:         -13.671
REMARK INTER:                 -12.277
REMARK INTRA:                  -1.394
REMARK UNBOUND:                -1.897
REMARK  Name = ligands_pdb/F3_CHEMBL27143.pdb
REMARK  14 active torsions:
REMARK  status: ('A' for Active; 'I' for Inactive)
REMARK    1  A    between atoms: N2_6  and  C3_7
REMARK    2  A    between atoms: C3_7  and  C4_10
REMARK    3  A    between atoms: C4_10  and  O1_13
REMARK    4  A    between atoms: O1_13  and  C5_14
REMARK    5  A    between atoms: C8_19  and  C9_20
REMARK    6  A    between atoms: N3_22  and  C10_24
REMARK    7  A    between atoms: C10_24  and  C11_26
REMARK    8  A    between atoms: C10_24  and  C13_33
REMARK    9  A    between atoms: C11_26  and  O4_28
REMARK   10  A    between atoms: O4_28  and  C12_29
REMARK   11  A    between atoms: C13_33  and  C14_36
REMARK   12  A    between atoms: C14_36  and  C15_38
REMARK   13  A    between atoms: C14_36  and  C16_42
REMARK   14  A    between atoms: C17_46  and  C18_47
REMARK                            x       y       z     vdW  Elec       q    Type
REMARK                         _______ _______ _______ _____ _____    ______ ____
ROOT
ATOM      1  C5  F04     1      96.041 118.652 144.860  0.00  0.00    +0.121 A 
ATOM      2  C6  F04     1      94.772 118.123 144.568  0.00  0.00    +0.046 A 
ATOM      3  C7  F04     1      94.274 118.176 143.258  0.00  0.00    +0.017 A 
ATOM      4  C8  F04     1      95.032 118.748 142.212  0.00  0.00    +0.045 A 
ATOM      5  C17 F04     1      96.328 119.271 142.495  0.00  0.00    -0.002 A 
ATOM      6  C24 F04     1      96.801 119.222 143.829  0.00  0.00    +0.055 A 
ENDROOT
BRANCH   5   7
ATOM      7  C18 F04     1      97.235 119.829 141.444  0.00  0.00    -0.017 A 
ATOM      8  C19 F04     1      97.861 118.978 140.502  0.00  0.00    +0.008 A 
ATOM      9  C20 F04     1      98.705 119.499 139.508  0.00  0.00    +0.001 A 
ATOM     10  C21 F04     1      98.928 120.883 139.429  0.00  0.00    +0.000 A 
ATOM     11  C22 F04     1      98.302 121.746 140.341  0.00  0.00    +0.001 A 
ATOM     12  C23 F04     1      97.457 121.223 141.334  0.00  0.00    +0.008 A 
ENDBRANCH   5   7
BRANCH   4  13
ATOM     13  C9  F04     1      94.417 118.848 140.837  0.00  0.00    +0.245 C 
ATOM     14  O2  F04     1      94.065 117.867 140.204  0.00  0.00    -0.270 OA
ATOM     15  N3  F04     1      94.333 120.125 140.306  0.00  0.00    -0.298 N 
ATOM     16  H9  F04     1      94.663 120.896 140.873  0.00  0.00    +0.150 HD
BRANCH  15  17
ATOM     17  C10 F04     1      93.780 120.443 138.976  0.00  0.00    +0.182 C 
BRANCH  17  18
ATOM     18  C11 F04     1      94.887 121.090 138.133  0.00  0.00    +0.327 C 
ATOM     19  O3  F04     1      95.745 120.460 137.533  0.00  0.00    -0.249 OA
BRANCH  18  20
ATOM     20  O4  F04     1      94.820 122.454 138.187  0.00  0.00    -0.467 OA
ATOM     21  C12 F04     1      95.580 123.231 137.245  0.00  0.00    +0.280 C 
ENDBRANCH  18  20
ENDBRANCH  17  18
BRANCH  17  22
ATOM     22  C13 F04     1      92.561 121.399 139.055  0.00  0.00    +0.036 C 
BRANCH  22  23
ATOM     23  C14 F04     1      91.212 120.726 139.429  0.00  0.00    -0.015 C 
ATOM     24  C15 F04     1      91.114 119.324 138.785  0.00  0.00    +0.007 C 
ATOM     25  C16 F04     1      91.008 120.624 140.959  0.00  0.00    +0.007 C 
ENDBRANCH  22  23
ENDBRANCH  17  22
ENDBRANCH  15  17
ENDBRANCH   4  13
BRANCH   1  26
ATOM     26  O1  F04     1      96.585 118.630 146.127  0.00  0.00    -0.490 OA
BRANCH  26  27
ATOM     27  C4  F04     1      95.790 118.597 147.326  0.00  0.00    +0.250 C 
BRANCH  27  28
ATOM     28  C3  F04     1      96.738 118.380 148.518  0.00  0.00    +0.163 C 
BRANCH  28  32
ATOM     29  C1  F04     1      96.711 114.783 148.969  0.00  0.00    +0.130 A 
ATOM     30  N1  F04     1      97.302 115.170 150.146  0.00  0.00    -0.244 NA
ATOM     31  C2  F04     1      97.362 116.486 150.099  0.00  0.00    +0.199 A 
ATOM     32  N2  F04     1      96.832 116.972 148.921  0.00  0.00    -0.334 N 
ATOM     33  C25 F04     1      96.411 115.877 148.198  0.00  0.00    +0.107 A 
ENDBRANCH  28  32
ENDBRANCH  27  28
ENDBRANCH  26  27
ENDBRANCH   1  26
TORSDOF 11
ENDMDL
MODEL 8
REMARK VINA RESULT:    -7.037      2.641      5.230
REMARK INTER + INTRA:         -13.459
REMARK INTER:                 -12.264
REMARK INTRA:                  -1.195
REMARK UNBOUND:                -1.897
REMARK  Name = ligands_pdb/F3_CHEMBL27143.pdb
REMARK  14 active torsions:
REMARK  status: ('A' for Active; 'I' for Inactive)
REMARK    1  A    between atoms: N2_6  and  C3_7
REMARK    2  A    between atoms: C3_7  and  C4_10
REMARK    3  A    between atoms: C4_10  and  O1_13
REMARK    4  A    between atoms: O1_13  and  C5_14
REMARK    5  A    between atoms: C8_19  and  C9_20
REMARK    6  A    between atoms: N3_22  and  C10_24
REMARK    7  A    between atoms: C10_24  and  C11_26
REMARK    8  A    between atoms: C10_24  and  C13_33
REMARK    9  A    between atoms: C11_26  and  O4_28
REMARK   10  A    between atoms: O4_28  and  C12_29
REMARK   11  A    between atoms: C13_33  and  C14_36
REMARK   12  A    between atoms: C14_36  and  C15_38
REMARK   13  A    between atoms: C14_36  and  C16_42
REMARK   14  A    between atoms: C17_46  and  C18_47
REMARK                            x       y       z     vdW  Elec       q    Type
REMARK                         _______ _______ _______ _____ _____    ______ ____
ROOT
ATOM      1  C5  F04     1      96.077 118.927 146.224  0.00  0.00    +0.121 A 
ATOM      2  C6  F04     1      97.308 118.787 145.559  0.00  0.00    +0.046 A 
ATOM      3  C7  F04     1      97.370 118.922 144.164  0.00  0.00    +0.017 A 
ATOM      4  C8  F04     1      96.213 119.206 143.405  0.00  0.00    +0.045 A 
ATOM      5  C17 F04     1      94.963 119.367 144.074  0.00  0.00    -0.002 A 
ATOM      6  C24 F04     1      94.923 119.210 145.480  0.00  0.00    +0.055 A 
ENDROOT
BRANCH   5   7
ATOM      7  C18 F04     1      93.698 119.741 143.368  0.00  0.00    -0.017 A 
ATOM      8  C19 F04     1      93.457 121.080 142.975  0.00  0.00    +0.008 A 
ATOM      9  C20 F04     1      92.275 121.433 142.303  0.00  0.00    +0.001 A 
ATOM     10  C21 F04     1      91.318 120.451 142.000  0.00  0.00    +0.000 A 
ATOM     11  C22 F04     1      91.547 119.115 142.363  0.00  0.00    +0.001 A 
ATOM     12  C23 F04     1      92.730 118.764 143.034  0.00  0.00    +0.008 A 
ENDBRANCH   5   7
BRANCH   4  13
ATOM     13  C9  F04     1      96.323 119.265 141.901  0.00  0.00    +0.245 C 
ATOM     14  O2  F04     1      95.731 118.489 141.170  0.00  0.00    -0.270 OA
ATOM     15  N3  F04     1      97.192 120.219 141.397  0.00  0.00    -0.298 N 
ATOM     16  H9  F04     1      97.671 120.819 142.057  0.00  0.00    +0.150 HD
BRANCH  15  17
ATOM     17  C10 F04     1      97.456 120.435 139.962  0.00  0.00    +0.182 C 
BRANCH  17  18
ATOM     18  C11 F04     1      98.251 119.235 139.430  0.00  0.00    +0.327 C 
ATOM     19  O3  F04     1      97.866 118.506 138.528  0.00  0.00    -0.249 OA
BRANCH  18  20
ATOM     20  O4  F04     1      99.412 119.058 140.130  0.00  0.00    -0.467 OA
ATOM     21  C12 F04     1     100.634 118.818 139.410  0.00  0.00    +0.280 C 
ENDBRANCH  18  20
ENDBRANCH  17  18
BRANCH  17  22
ATOM     22  C13 F04     1      98.248 121.742 139.695  0.00  0.00    +0.036 C 
BRANCH  22  23
ATOM     23  C14 F04     1      97.940 122.442 138.344  0.00  0.00    -0.015 C 
ATOM     24  C15 F04     1      99.027 122.097 137.300  0.00  0.00    +0.007 C 
ATOM     25  C16 F04     1      96.541 122.074 137.795  0.00  0.00    +0.007 C 
ENDBRANCH  22  23
ENDBRANCH  17  22
ENDBRANCH  15  17
ENDBRANCH   4  13
BRANCH   1  26
ATOM     26  O1  F04     1      95.951 118.807 147.592  0.00  0.00    -0.490 OA
BRANCH  26  27
ATOM     27  C4  F04     1      96.508 117.713 148.341  0.00  0.00    +0.250 C 
BRANCH  27  28
ATOM     28  C3  F04     1      95.976 116.402 147.736  0.00  0.00    +0.163 C 
BRANCH  28  32
ATOM     29  C1  F04     1      97.673 113.845 149.664  0.00  0.00    +0.130 A 
ATOM     30  N1  F04     1      96.721 113.082 149.036  0.00  0.00    -0.244 NA
ATOM     31  C2  F04     1      96.030 113.919 148.287  0.00  0.00    +0.199 A 
ATOM     32  N2  F04     1      96.502 115.210 148.411  0.00  0.00    -0.334 N 
ATOM     33  C25 F04     1      97.559 115.160 149.293  0.00  0.00    +0.107 A 
ENDBRANCH  28  32
ENDBRANCH  27  28
ENDBRANCH  26  27
ENDBRANCH   1  26
TORSDOF 11
ENDMDL
MODEL 9
REMARK VINA RESULT:    -6.835      1.770      2.807
REMARK INTER + INTRA:         -13.128
REMARK INTER:                 -12.126
REMARK INTRA:                  -1.002
REMARK UNBOUND:                -1.897
REMARK  Name = ligands_pdb/F3_CHEMBL27143.pdb
REMARK  14 active torsions:
REMARK  status: ('A' for Active; 'I' for Inactive)
REMARK    1  A    between atoms: N2_6  and  C3_7
REMARK    2  A    between atoms: C3_7  and  C4_10
REMARK    3  A    between atoms: C4_10  and  O1_13
REMARK    4  A    between atoms: O1_13  and  C5_14
REMARK    5  A    between atoms: C8_19  and  C9_20
REMARK    6  A    between atoms: N3_22  and  C10_24
REMARK    7  A    between atoms: C10_24  and  C11_26
REMARK    8  A    between atoms: C10_24  and  C13_33
REMARK    9  A    between atoms: C11_26  and  O4_28
REMARK   10  A    between atoms: O4_28  and  C12_29
REMARK   11  A    between atoms: C13_33  and  C14_36
REMARK   12  A    between atoms: C14_36  and  C15_38
REMARK   13  A    between atoms: C14_36  and  C16_42
REMARK   14  A    between atoms: C17_46  and  C18_47
REMARK                            x       y       z     vdW  Elec       q    Type
REMARK                         _______ _______ _______ _____ _____    ______ ____
ROOT
ATOM      1  C5  F04     1      95.985 118.752 145.801  0.00  0.00    +0.121 A 
ATOM      2  C6  F04     1      94.627 118.980 146.086  0.00  0.00    +0.046 A 
ATOM      3  C7  F04     1      93.715 119.180 145.039  0.00  0.00    +0.017 A 
ATOM      4  C8  F04     1      94.134 119.150 143.691  0.00  0.00    +0.045 A 
ATOM      5  C17 F04     1      95.506 118.902 143.392  0.00  0.00    -0.002 A 
ATOM      6  C24 F04     1      96.410 118.720 144.466  0.00  0.00    +0.055 A 
ENDROOT
BRANCH   5   7
ATOM      7  C18 F04     1      96.032 118.779 141.997  0.00  0.00    -0.017 A 
ATOM      8  C19 F04     1      95.457 117.861 141.084  0.00  0.00    +0.008 A 
ATOM      9  C20 F04     1      95.941 117.750 139.771  0.00  0.00    +0.001 A 
ATOM     10  C21 F04     1      97.002 118.562 139.341  0.00  0.00    +0.000 A 
ATOM     11  C22 F04     1      97.574 119.492 140.223  0.00  0.00    +0.001 A 
ATOM     12  C23 F04     1      97.087 119.603 141.536  0.00  0.00    +0.008 A 
ENDBRANCH   5   7
BRANCH   4  13
ATOM     13  C9  F04     1      93.126 119.448 142.607  0.00  0.00    +0.245 C 
ATOM     14  O2  F04     1      92.404 118.589 142.130  0.00  0.00    -0.270 OA
ATOM     15  N3  F04     1      93.111 120.752 142.140  0.00  0.00    -0.298 N 
ATOM     16  H9  F04     1      93.750 121.413 142.563  0.00  0.00    +0.150 HD
BRANCH  15  17
ATOM     17  C10 F04     1      92.215 121.250 141.078  0.00  0.00    +0.182 C 
BRANCH  17  18
ATOM     18  C11 F04     1      93.069 121.612 139.855  0.00  0.00    +0.327 C 
ATOM     19  O3  F04     1      94.254 121.904 139.911  0.00  0.00    -0.249 OA
BRANCH  18  20
ATOM     20  O4  F04     1      92.320 121.619 138.712  0.00  0.00    -0.467 OA
ATOM     21  C12 F04     1      91.403 120.538 138.469  0.00  0.00    +0.280 C 
ENDBRANCH  18  20
ENDBRANCH  17  18
BRANCH  17  22
ATOM     22  C13 F04     1      91.398 122.490 141.527  0.00  0.00    +0.036 C 
BRANCH  22  23
ATOM     23  C14 F04     1      92.030 123.864 141.177  0.00  0.00    -0.015 C 
ATOM     24  C15 F04     1      91.095 124.665 140.243  0.00  0.00    +0.007 C 
ATOM     25  C16 F04     1      92.364 124.699 142.436  0.00  0.00    +0.007 C 
ENDBRANCH  22  23
ENDBRANCH  17  22
ENDBRANCH  15  17
ENDBRANCH   4  13
BRANCH   1  26
ATOM     26  O1  F04     1      96.929 118.548 146.785  0.00  0.00    -0.490 OA
BRANCH  26  27
ATOM     27  C4  F04     1      96.592 118.285 148.159  0.00  0.00    +0.250 C 
BRANCH  27  28
ATOM     28  C3  F04     1      97.579 117.234 148.697  0.00  0.00    +0.163 C 
BRANCH  28  32
ATOM     29  C1  F04     1      95.665 114.246 149.440  0.00  0.00    +0.130 A 
ATOM     30  N1  F04     1      96.308 114.425 150.639  0.00  0.00    -0.244 NA
ATOM     31  C2  F04     1      97.046 115.509 150.489  0.00  0.00    +0.199 A 
ATOM     32  N2  F04     1      96.907 116.040 149.224  0.00  0.00    -0.334 N 
ATOM     33  C25 F04     1      96.017 115.231 148.552  0.00  0.00    +0.107 A 
ENDBRANCH  28  32
ENDBRANCH  27  28
ENDBRANCH  26  27
ENDBRANCH   1  26
TORSDOF 11
ENDMDL
MODEL 10
REMARK VINA RESULT:    -6.692      4.312      7.026
REMARK INTER + INTRA:         -12.893
REMARK INTER:                 -11.396
REMARK INTRA:                  -1.498
REMARK UNBOUND:                -1.897
REMARK  Name = ligands_pdb/F3_CHEMBL27143.pdb
REMARK  14 active torsions:
REMARK  status: ('A' for Active; 'I' for Inactive)
REMARK    1  A    between atoms: N2_6  and  C3_7
REMARK    2  A    between atoms: C3_7  and  C4_10
REMARK    3  A    between atoms: C4_10  and  O1_13
REMARK    4  A    between atoms: O1_13  and  C5_14
REMARK    5  A    between atoms: C8_19  and  C9_20
REMARK    6  A    between atoms: N3_22  and  C10_24
REMARK    7  A    between atoms: C10_24  and  C11_26
REMARK    8  A    between atoms: C10_24  and  C13_33
REMARK    9  A    between atoms: C11_26  and  O4_28
REMARK   10  A    between atoms: O4_28  and  C12_29
REMARK   11  A    between atoms: C13_33  and  C14_36
REMARK   12  A    between atoms: C14_36  and  C15_38
REMARK   13  A    between atoms: C14_36  and  C16_42
REMARK   14  A    between atoms: C17_46  and  C18_47
REMARK                            x       y       z     vdW  Elec       q    Type
REMARK                         _______ _______ _______ _____ _____    ______ ____
ROOT
ATOM      1  C5  F04     1      93.598 119.922 140.705  0.00  0.00    +0.121 A 
ATOM      2  C6  F04     1      92.819 120.877 140.029  0.00  0.00    +0.046 A 
ATOM      3  C7  F04     1      93.381 121.633 138.990  0.00  0.00    +0.017 A 
ATOM      4  C8  F04     1      94.725 121.448 138.598  0.00  0.00    +0.045 A 
ATOM      5  C17 F04     1      95.518 120.469 139.266  0.00  0.00    -0.002 A 
ATOM      6  C24 F04     1      94.933 119.731 140.323  0.00  0.00    +0.055 A 
ENDROOT
BRANCH   5   7
ATOM      7  C18 F04     1      96.926 120.148 138.875  0.00  0.00    -0.017 A 
ATOM      8  C19 F04     1      98.018 120.648 139.626  0.00  0.00    +0.008 A 
ATOM      9  C20 F04     1      99.341 120.341 139.268  0.00  0.00    +0.001 A 
ATOM     10  C21 F04     1      99.597 119.518 138.160  0.00  0.00    +0.000 A 
ATOM     11  C22 F04     1      98.529 118.996 137.414  0.00  0.00    +0.001 A 
ATOM     12  C23 F04     1      97.206 119.303 137.774  0.00  0.00    +0.008 A 
ENDBRANCH   5   7
BRANCH   4  13
ATOM     13  C9  F04     1      95.301 122.341 137.525  0.00  0.00    +0.245 C 
ATOM     14  O2  F04     1      94.898 122.326 136.375  0.00  0.00    -0.270 OA
ATOM     15  N3  F04     1      96.365 123.139 137.913  0.00  0.00    -0.298 N 
ATOM     16  H9  F04     1      96.667 123.089 138.878  0.00  0.00    +0.150 HD
BRANCH  15  17
ATOM     17  C10 F04     1      97.079 124.072 137.021  0.00  0.00    +0.182 C 
BRANCH  17  18
ATOM     18  C11 F04     1      98.588 123.843 137.189  0.00  0.00    +0.327 C 
ATOM     19  O3  F04     1      99.354 124.666 137.668  0.00  0.00    -0.249 OA
BRANCH  18  20
ATOM     20  O4  F04     1      98.965 122.630 136.684  0.00  0.00    -0.467 OA
ATOM     21  C12 F04     1      98.572 122.276 135.347  0.00  0.00    +0.280 C 
ENDBRANCH  18  20
ENDBRANCH  17  18
BRANCH  17  22
ATOM     22  C13 F04     1      96.742 125.556 137.324  0.00  0.00    +0.036 C 
BRANCH  22  23
ATOM     23  C14 F04     1      95.309 126.005 136.928  0.00  0.00    -0.015 C 
ATOM     24  C15 F04     1      95.121 127.514 137.207  0.00  0.00    +0.007 C 
ATOM     25  C16 F04     1      94.980 125.694 135.449  0.00  0.00    +0.007 C 
ENDBRANCH  22  23
ENDBRANCH  17  22
ENDBRANCH  15  17
ENDBRANCH   4  13
BRANCH   1  26
ATOM     26  O1  F04     1      93.104 119.149 141.734  0.00  0.00    -0.490 OA
BRANCH  26  27
ATOM     27  C4  F04     1      93.931 118.594 142.772  0.00  0.00    +0.250 C 
BRANCH  27  28
ATOM     28  C3  F04     1      94.427 119.752 143.654  0.00  0.00    +0.163 C 
BRANCH  28  32
ATOM     29  C1  F04     1      96.396 118.500 146.429  0.00  0.00    +0.130 A 
ATOM     30  N1  F04     1      95.233 118.822 147.083  0.00  0.00    -0.244 NA
ATOM     31  C2  F04     1      94.421 119.293 146.157  0.00  0.00    +0.199 A 
ATOM     32  N2  F04     1      95.022 119.292 144.914  0.00  0.00    -0.334 N 
ATOM     33  C25 F04     1      96.289 118.780 145.090  0.00  0.00    +0.107 A 
ENDBRANCH  28  32
ENDBRANCH  27  28
ENDBRANCH  26  27
ENDBRANCH   1  26
TORSDOF 11
ENDMDL
