MODEL 1
REMARK VINA RESULT:    -8.736      0.000      0.000
REMARK INTER + INTRA:         -12.155
REMARK INTER:                 -10.779
REMARK INTRA:                  -1.377
REMARK UNBOUND:                -1.377
REMARK  Name = ligands_pdb/TRN_CHEMBL123530.pdb
REMARK  6 active torsions:
REMARK  status: ('A' for Active; 'I' for Inactive)
REMARK    1  A    between atoms: C1_1  and  C2_2
REMARK    2  A    between atoms: C6_6  and  C7_7
REMARK    3  A    between atoms: C7_7  and  O1_8
REMARK    4  A    between atoms: O1_8  and  C8_9
REMARK    5  A    between atoms: C9_12  and  C10_13
REMARK    6  A    between atoms: C12_16  and  C13_17
REMARK                            x       y       z     vdW  Elec       q    Type
REMARK                         _______ _______ _______ _____ _____    ______ ____
ROOT
ATOM      1  C8  T05     1      95.266 120.601 142.434  0.00  0.00    +0.237 A 
ATOM      2  N1  T05     1      95.406 119.995 143.641  0.00  0.00    -0.125 NA
ATOM      3  N2  T05     1      94.499 119.043 143.973  0.00  0.00    -0.187 N 
ATOM      4  C9  T05     1      94.325 118.242 145.071  0.00  0.00    +0.207 A 
ATOM      5  N4  T05     1      93.256 117.457 144.903  0.00  0.00    -0.125 NA
ATOM      6  N5  T05     1      92.751 117.717 143.768  0.00  0.00    -0.127 NA
ATOM      7  C14 T05     1      93.458 118.647 143.195  0.00  0.00    +0.182 A 
ATOM      8  C15 T05     1      93.287 119.254 141.943  0.00  0.00    +0.010 A 
ATOM      9  C16 T05     1      94.208 120.247 141.563  0.00  0.00    +0.026 A 
ATOM     10  C17 T05     1      93.930 120.842 140.182  0.00  0.00    +0.025 C 
ATOM     11  C18 T05     1      92.485 121.417 140.221  0.00  0.00    +0.009 C 
ATOM     12  C19 T05     1      91.464 120.313 140.652  0.00  0.00    +0.009 C 
ATOM     13  C20 T05     1      92.198 118.966 140.916  0.00  0.00    +0.023 C 
ATOM     14  C21 T05     1      92.920 118.556 139.601  0.00  0.00    +0.009 C 
ATOM     15  C22 T05     1      93.941 119.661 139.169  0.00  0.00    +0.009 C 
ENDROOT
BRANCH   4  16
ATOM     16  C10 T05     1      95.131 118.195 146.262  0.00  0.00    +0.148 A 
ATOM     17  C11 T05     1      95.241 119.295 147.069  0.00  0.00    +0.228 A 
ATOM     18  O2  T05     1      96.053 118.941 148.089  0.00  0.00    -0.447 OA
ATOM     19  C12 T05     1      96.362 117.642 147.802  0.00  0.00    +0.193 A 
ATOM     20  C13 T05     1      97.270 116.895 148.738  0.00  0.00    +0.109 C 
ATOM     21  N3  T05     1      95.815 117.192 146.714  0.00  0.00    -0.210 NA
ENDBRANCH   4  16
BRANCH   1  22
ATOM     22  O1  T05     1      96.153 121.576 142.032  0.00  0.00    -0.469 OA
BRANCH  22  23
ATOM     23  C7  T05     1      97.479 121.254 141.563  0.00  0.00    +0.286 C 
BRANCH  23  29
ATOM     24  C1  T05     1      96.922 122.712 136.962  0.00  0.00    +0.065 C 
ATOM     25  C2  T05     1      97.205 121.548 137.898  0.00  0.00    +0.039 A 
ATOM     26  C3  T05     1      97.419 120.249 137.399  0.00  0.00    +0.023 A 
ATOM     27  C4  T05     1      97.671 119.209 138.308  0.00  0.00    +0.004 A 
ATOM     28  C5  T05     1      97.699 119.505 139.680  0.00  0.00    +0.027 A 
ATOM     29  C6  T05     1      97.471 120.835 140.097  0.00  0.00    +0.079 A 
ATOM     30  N6  T05     1      97.229 121.830 139.217  0.00  0.00    -0.253 NA
ENDBRANCH  23  29
ENDBRANCH  22  23
ENDBRANCH   1  22
TORSDOF 4
ENDMDL
MODEL 2
REMARK VINA RESULT:    -8.187      2.039      7.088
REMARK INTER + INTRA:         -11.478
REMARK INTER:                 -10.821
REMARK INTRA:                  -0.657
REMARK UNBOUND:                -1.377
REMARK  Name = ligands_pdb/TRN_CHEMBL123530.pdb
REMARK  6 active torsions:
REMARK  status: ('A' for Active; 'I' for Inactive)
REMARK    1  A    between atoms: C1_1  and  C2_2
REMARK    2  A    between atoms: C6_6  and  C7_7
REMARK    3  A    between atoms: C7_7  and  O1_8
REMARK    4  A    between atoms: O1_8  and  C8_9
REMARK    5  A    between atoms: C9_12  and  C10_13
REMARK    6  A    between atoms: C12_16  and  C13_17
REMARK                            x       y       z     vdW  Elec       q    Type
REMARK                         _______ _______ _______ _____ _____    ______ ____
ROOT
ATOM      1  C8  T05     1      94.704 119.391 143.098  0.00  0.00    +0.237 A 
ATOM      2  N1  T05     1      95.708 119.489 142.189  0.00  0.00    -0.125 NA
ATOM      3  N2  T05     1      95.364 119.706 140.895  0.00  0.00    -0.187 N 
ATOM      4  C9  T05     1      96.079 119.855 139.735  0.00  0.00    +0.207 A 
ATOM      5  N4  T05     1      95.251 120.051 138.705  0.00  0.00    -0.125 NA
ATOM      6  N5  T05     1      94.062 120.033 139.148  0.00  0.00    -0.127 NA
ATOM      7  C14 T05     1      94.093 119.832 140.433  0.00  0.00    +0.182 A 
ATOM      8  C15 T05     1      93.034 119.735 141.347  0.00  0.00    +0.010 A 
ATOM      9  C16 T05     1      93.351 119.511 142.699  0.00  0.00    +0.026 A 
ATOM     10  C17 T05     1      92.125 119.422 143.608  0.00  0.00    +0.025 C 
ATOM     11  C18 T05     1      91.233 118.274 143.053  0.00  0.00    +0.009 C 
ATOM     12  C19 T05     1      90.889 118.523 141.548  0.00  0.00    +0.009 C 
ATOM     13  C20 T05     1      91.543 119.845 141.051  0.00  0.00    +0.023 C 
ATOM     14  C21 T05     1      90.995 121.003 141.933  0.00  0.00    +0.009 C 
ATOM     15  C22 T05     1      91.339 120.754 143.439  0.00  0.00    +0.009 C 
ENDROOT
BRANCH   4  16
ATOM     16  C10 T05     1      97.509 119.820 139.574  0.00  0.00    +0.148 A 
ATOM     17  C11 T05     1      98.250 120.963 139.699  0.00  0.00    +0.228 A 
ATOM     18  O2  T05     1      99.538 120.607 139.495  0.00  0.00    -0.447 OA
ATOM     19  C12 T05     1      99.456 119.264 139.264  0.00  0.00    +0.193 A 
ATOM     20  C13 T05     1     100.722 118.503 138.989  0.00  0.00    +0.109 C 
ATOM     21  N3  T05     1      98.248 118.788 139.309  0.00  0.00    -0.210 NA
ENDBRANCH   4  16
BRANCH   1  22
ATOM     22  O1  T05     1      94.983 119.172 144.429  0.00  0.00    -0.469 OA
BRANCH  22  23
ATOM     23  C7  T05     1      95.013 117.844 144.993  0.00  0.00    +0.286 C 
BRANCH  23  29
ATOM     24  C1  T05     1      96.764 115.184 148.662  0.00  0.00    +0.065 C 
ATOM     25  C2  T05     1      96.366 116.569 148.177  0.00  0.00    +0.039 A 
ATOM     26  C3  T05     1      96.476 117.693 149.016  0.00  0.00    +0.023 A 
ATOM     27  C4  T05     1      96.090 118.949 148.519  0.00  0.00    +0.004 A 
ATOM     28  C5  T05     1      95.607 119.032 147.204  0.00  0.00    +0.027 A 
ATOM     29  C6  T05     1      95.525 117.854 146.430  0.00  0.00    +0.079 A 
ATOM     30  N6  T05     1      95.899 116.651 146.915  0.00  0.00    -0.253 NA
ENDBRANCH  23  29
ENDBRANCH  22  23
ENDBRANCH   1  22
TORSDOF 4
ENDMDL
MODEL 3
REMARK VINA RESULT:    -7.946      2.152      4.425
REMARK INTER + INTRA:         -11.181
REMARK INTER:                  -9.988
REMARK INTRA:                  -1.193
REMARK UNBOUND:                -1.377
REMARK  Name = ligands_pdb/TRN_CHEMBL123530.pdb
REMARK  6 active torsions:
REMARK  status: ('A' for Active; 'I' for Inactive)
REMARK    1  A    between atoms: C1_1  and  C2_2
REMARK    2  A    between atoms: C6_6  and  C7_7
REMARK    3  A    between atoms: C7_7  and  O1_8
REMARK    4  A    between atoms: O1_8  and  C8_9
REMARK    5  A    between atoms: C9_12  and  C10_13
REMARK    6  A    between atoms: C12_16  and  C13_17
REMARK                            x       y       z     vdW  Elec       q    Type
REMARK                         _______ _______ _______ _____ _____    ______ ____
ROOT
ATOM      1  C8  T05     1      93.814 118.517 142.962  0.00  0.00    +0.237 A 
ATOM      2  N1  T05     1      94.426 118.515 144.174  0.00  0.00    -0.125 NA
ATOM      3  N2  T05     1      95.767 118.720 144.201  0.00  0.00    -0.187 N 
ATOM      4  C9  T05     1      96.697 118.784 145.205  0.00  0.00    +0.207 A 
ATOM      5  N4  T05     1      97.911 119.011 144.695  0.00  0.00    -0.125 NA
ATOM      6  N5  T05     1      97.798 119.093 143.434  0.00  0.00    -0.127 NA
ATOM      7  C14 T05     1      96.549 118.926 143.109  0.00  0.00    +0.182 A 
ATOM      8  C15 T05     1      95.947 118.934 141.844  0.00  0.00    +0.010 A 
ATOM      9  C16 T05     1      94.558 118.725 141.776  0.00  0.00    +0.026 A 
ATOM     10  C17 T05     1      94.005 118.752 140.350  0.00  0.00    +0.025 C 
ATOM     11  C18 T05     1      94.767 117.658 139.548  0.00  0.00    +0.009 C 
ATOM     12  C19 T05     1      96.311 117.889 139.633  0.00  0.00    +0.009 C 
ATOM     13  C20 T05     1      96.628 119.144 140.496  0.00  0.00    +0.023 C 
ATOM     14  C21 T05     1      95.931 120.364 139.828  0.00  0.00    +0.009 C 
ATOM     15  C22 T05     1      94.386 120.133 139.743  0.00  0.00    +0.009 C 
ENDROOT
BRANCH   4  16
ATOM     16  C10 T05     1      96.474 118.639 146.620  0.00  0.00    +0.148 A 
ATOM     17  C11 T05     1      95.253 118.930 147.164  0.00  0.00    +0.228 A 
ATOM     18  O2  T05     1      95.360 118.697 148.491  0.00  0.00    -0.447 OA
ATOM     19  C12 T05     1      96.654 118.281 148.628  0.00  0.00    +0.193 A 
ATOM     20  C13 T05     1      97.151 117.923 150.000  0.00  0.00    +0.109 C 
ATOM     21  N3  T05     1      97.323 118.244 147.516  0.00  0.00    -0.210 NA
ENDBRANCH   4  16
BRANCH   1  22
ATOM     22  O1  T05     1      92.455 118.316 142.862  0.00  0.00    -0.469 OA
BRANCH  22  23
ATOM     23  C7  T05     1      91.504 119.332 143.245  0.00  0.00    +0.286 C 
BRANCH  23  29
ATOM     24  C1  T05     1      90.128 121.001 138.895  0.00  0.00    +0.065 C 
ATOM     25  C2  T05     1      90.856 121.300 140.196  0.00  0.00    +0.039 A 
ATOM     26  C3  T05     1      91.467 122.549 140.416  0.00  0.00    +0.023 A 
ATOM     27  C4  T05     1      92.131 122.771 141.633  0.00  0.00    +0.004 A 
ATOM     28  C5  T05     1      92.161 121.737 142.582  0.00  0.00    +0.027 A 
ATOM     29  C6  T05     1      91.525 120.513 142.280  0.00  0.00    +0.079 A 
ATOM     30  N6  T05     1      90.888 120.307 141.108  0.00  0.00    -0.253 NA
ENDBRANCH  23  29
ENDBRANCH  22  23
ENDBRANCH   1  22
TORSDOF 4
ENDMDL
MODEL 4
REMARK VINA RESULT:    -7.836      2.843      7.142
REMARK INTER + INTRA:         -11.045
REMARK INTER:                 -10.352
REMARK INTRA:                  -0.693
REMARK UNBOUND:                -1.377
REMARK  Name = ligands_pdb/TRN_CHEMBL123530.pdb
REMARK  6 active torsions:
REMARK  status: ('A' for Active; 'I' for Inactive)
REMARK    1  A    between atoms: C1_1  and  C2_2
REMARK    2  A    between atoms: C6_6  and  C7_7
REMARK    3  A    between atoms: C7_7  and  O1_8
REMARK    4  A    between atoms: O1_8  and  C8_9
REMARK    5  A    between atoms: C9_12  and  C10_13
REMARK    6  A    between atoms: C12_16  and  C13_17
REMARK                            x       y       z     vdW  Elec       q    Type
REMARK                         _______ _______ _______ _____ _____    ______ ____
ROOT
ATOM      1  C8  T05     1      94.118 118.655 141.775  0.00  0.00    +0.237 A 
ATOM      2  N1  T05     1      95.159 118.932 140.950  0.00  0.00    -0.125 NA
ATOM      3  N2  T05     1      96.393 119.027 141.506  0.00  0.00    -0.187 N 
ATOM      4  C9  T05     1      97.642 119.285 141.005  0.00  0.00    +0.207 A 
ATOM      5  N4  T05     1      98.545 119.269 141.990  0.00  0.00    -0.125 NA
ATOM      6  N5  T05     1      97.939 119.017 143.076  0.00  0.00    -0.127 NA
ATOM      7  C14 T05     1      96.670 118.869 142.827  0.00  0.00    +0.182 A 
ATOM      8  C15 T05     1      95.615 118.583 143.705  0.00  0.00    +0.010 A 
ATOM      9  C16 T05     1      94.321 118.476 143.165  0.00  0.00    +0.026 A 
ATOM     10  C17 T05     1      93.248 118.163 144.207  0.00  0.00    +0.025 C 
ATOM     11  C18 T05     1      93.309 119.294 145.273  0.00  0.00    +0.009 C 
ATOM     12  C19 T05     1      94.751 119.415 145.866  0.00  0.00    +0.009 C 
ATOM     13  C20 T05     1      95.699 118.369 145.212  0.00  0.00    +0.023 C 
ATOM     14  C21 T05     1      95.110 116.957 145.496  0.00  0.00    +0.009 C 
ATOM     15  C22 T05     1      93.667 116.835 144.904  0.00  0.00    +0.009 C 
ENDROOT
BRANCH   4  16
ATOM     16  C10 T05     1      98.004 119.543 139.636  0.00  0.00    +0.148 A 
ATOM     17  C11 T05     1      98.864 120.561 139.326  0.00  0.00    +0.228 A 
ATOM     18  O2  T05     1      99.002 120.548 137.982  0.00  0.00    -0.447 OA
ATOM     19  C12 T05     1      98.203 119.509 137.598  0.00  0.00    +0.193 A 
ATOM     20  C13 T05     1      98.100 119.182 136.135  0.00  0.00    +0.109 C 
ATOM     21  N3  T05     1      97.605 118.906 138.581  0.00  0.00    -0.210 NA
ENDBRANCH   4  16
BRANCH   1  22
ATOM     22  O1  T05     1      92.838 118.544 141.277  0.00  0.00    -0.469 OA
BRANCH  22  23
ATOM     23  C7  T05     1      92.476 119.068 139.982  0.00  0.00    +0.286 C 
BRANCH  23  29
ATOM     24  C1  T05     1      89.065 115.659 140.568  0.00  0.00    +0.065 C 
ATOM     25  C2  T05     1      89.490 116.912 139.819  0.00  0.00    +0.039 A 
ATOM     26  C3  T05     1      88.673 117.474 138.820  0.00  0.00    +0.023 A 
ATOM     27  C4  T05     1      89.116 118.630 138.156  0.00  0.00    +0.004 A 
ATOM     28  C5  T05     1      90.357 119.177 138.514  0.00  0.00    +0.027 A 
ATOM     29  C6  T05     1      91.116 118.549 139.525  0.00  0.00    +0.079 A 
ATOM     30  N6  T05     1      90.684 117.439 140.159  0.00  0.00    -0.253 NA
ENDBRANCH  23  29
ENDBRANCH  22  23
ENDBRANCH   1  22
TORSDOF 4
ENDMDL
MODEL 5
REMARK VINA RESULT:    -7.810      2.921      7.112
REMARK INTER + INTRA:         -11.013
REMARK INTER:                  -9.713
REMARK INTRA:                  -1.300
REMARK UNBOUND:                -1.377
REMARK  Name = ligands_pdb/TRN_CHEMBL123530.pdb
REMARK  6 active torsions:
REMARK  status: ('A' for Active; 'I' for Inactive)
REMARK    1  A    between atoms: C1_1  and  C2_2
REMARK    2  A    between atoms: C6_6  and  C7_7
REMARK    3  A    between atoms: C7_7  and  O1_8
REMARK    4  A    between atoms: O1_8  and  C8_9
REMARK    5  A    between atoms: C9_12  and  C10_13
REMARK    6  A    between atoms: C12_16  and  C13_17
REMARK                            x       y       z     vdW  Elec       q    Type
REMARK                         _______ _______ _______ _____ _____    ______ ____
ROOT
ATOM      1  C8  T05     1      94.103 118.674 141.408  0.00  0.00    +0.237 A 
ATOM      2  N1  T05     1      95.177 118.905 140.610  0.00  0.00    -0.125 NA
ATOM      3  N2  T05     1      96.384 119.055 141.211  0.00  0.00    -0.187 N 
ATOM      4  C9  T05     1      97.651 119.292 140.746  0.00  0.00    +0.207 A 
ATOM      5  N4  T05     1      98.511 119.357 141.767  0.00  0.00    -0.125 NA
ATOM      6  N5  T05     1      97.861 119.174 142.841  0.00  0.00    -0.127 NA
ATOM      7  C14 T05     1      96.606 118.993 142.550  0.00  0.00    +0.182 A 
ATOM      8  C15 T05     1      95.517 118.756 143.400  0.00  0.00    +0.010 A 
ATOM      9  C16 T05     1      94.248 118.596 142.814  0.00  0.00    +0.026 A 
ATOM     10  C17 T05     1      93.134 118.343 143.830  0.00  0.00    +0.025 C 
ATOM     11  C18 T05     1      93.138 119.547 144.815  0.00  0.00    +0.009 C 
ATOM     12  C19 T05     1      94.551 119.728 145.458  0.00  0.00    +0.009 C 
ATOM     13  C20 T05     1      95.537 118.650 144.920  0.00  0.00    +0.023 C 
ATOM     14  C21 T05     1      94.950 117.254 145.279  0.00  0.00    +0.009 C 
ATOM     15  C22 T05     1      93.535 117.073 144.635  0.00  0.00    +0.009 C 
ENDROOT
BRANCH   4  16
ATOM     16  C10 T05     1      98.070 119.458 139.379  0.00  0.00    +0.148 A 
ATOM     17  C11 T05     1      99.133 120.262 139.071  0.00  0.00    +0.228 A 
ATOM     18  O2  T05     1      99.274 120.211 137.728  0.00  0.00    -0.447 OA
ATOM     19  C12 T05     1      98.270 119.370 137.343  0.00  0.00    +0.193 A 
ATOM     20  C13 T05     1      98.108 119.066 135.880  0.00  0.00    +0.109 C 
ATOM     21  N3  T05     1      97.548 118.918 138.323  0.00  0.00    -0.210 NA
ENDBRANCH   4  16
BRANCH   1  22
ATOM     22  O1  T05     1      92.848 118.512 140.865  0.00  0.00    -0.469 OA
BRANCH  22  23
ATOM     23  C7  T05     1      92.118 119.615 140.287  0.00  0.00    +0.286 C 
BRANCH  23  29
ATOM     24  C1  T05     1      88.708 119.663 143.746  0.00  0.00    +0.065 C 
ATOM     25  C2  T05     1      89.780 120.451 143.011  0.00  0.00    +0.039 A 
ATOM     26  C3  T05     1      90.036 121.799 143.327  0.00  0.00    +0.023 A 
ATOM     27  C4  T05     1      91.033 122.483 142.614  0.00  0.00    +0.004 A 
ATOM     28  C5  T05     1      91.735 121.796 141.612  0.00  0.00    +0.027 A 
ATOM     29  C6  T05     1      91.414 120.445 141.355  0.00  0.00    +0.079 A 
ATOM     30  N6  T05     1      90.453 119.794 142.046  0.00  0.00    -0.253 NA
ENDBRANCH  23  29
ENDBRANCH  22  23
ENDBRANCH   1  22
TORSDOF 4
ENDMDL
MODEL 6
REMARK VINA RESULT:    -7.730      3.633      8.796
REMARK INTER + INTRA:         -10.914
REMARK INTER:                  -9.516
REMARK INTRA:                  -1.398
REMARK UNBOUND:                -1.377
REMARK  Name = ligands_pdb/TRN_CHEMBL123530.pdb
REMARK  6 active torsions:
REMARK  status: ('A' for Active; 'I' for Inactive)
REMARK    1  A    between atoms: C1_1  and  C2_2
REMARK    2  A    between atoms: C6_6  and  C7_7
REMARK    3  A    between atoms: C7_7  and  O1_8
REMARK    4  A    between atoms: O1_8  and  C8_9
REMARK    5  A    between atoms: C9_12  and  C10_13
REMARK    6  A    between atoms: C12_16  and  C13_17
REMARK                            x       y       z     vdW  Elec       q    Type
REMARK                         _______ _______ _______ _____ _____    ______ ____
ROOT
ATOM      1  C8  T05     1      95.069 121.337 137.963  0.00  0.00    +0.237 A 
ATOM      2  N1  T05     1      94.838 122.594 137.504  0.00  0.00    -0.125 NA
ATOM      3  N2  T05     1      95.909 123.411 137.348  0.00  0.00    -0.187 N 
ATOM      4  C9  T05     1      96.060 124.705 136.921  0.00  0.00    +0.207 A 
ATOM      5  N4  T05     1      97.350 125.052 136.952  0.00  0.00    -0.125 NA
ATOM      6  N5  T05     1      98.015 124.057 137.372  0.00  0.00    -0.127 NA
ATOM      7  C14 T05     1      97.197 123.074 137.614  0.00  0.00    +0.182 A 
ATOM      8  C15 T05     1      97.468 121.783 138.089  0.00  0.00    +0.010 A 
ATOM      9  C16 T05     1      96.383 120.906 138.264  0.00  0.00    +0.026 A 
ATOM     10  C17 T05     1      96.790 119.527 138.785  0.00  0.00    +0.025 C 
ATOM     11  C18 T05     1      97.539 119.754 140.130  0.00  0.00    +0.009 C 
ATOM     12  C19 T05     1      98.739 120.736 139.933  0.00  0.00    +0.009 C 
ATOM     13  C20 T05     1      98.829 121.197 138.449  0.00  0.00    +0.023 C 
ATOM     14  C21 T05     1      99.015 119.926 137.571  0.00  0.00    +0.009 C 
ATOM     15  C22 T05     1      97.814 118.943 137.769  0.00  0.00    +0.009 C 
ENDROOT
BRANCH   4  16
ATOM     16  C10 T05     1      95.031 125.614 136.488  0.00  0.00    +0.148 A 
ATOM     17  C11 T05     1      95.006 126.903 136.946  0.00  0.00    +0.228 A 
ATOM     18  O2  T05     1      93.937 127.493 136.366  0.00  0.00    -0.447 OA
ATOM     19  C12 T05     1      93.408 126.493 135.601  0.00  0.00    +0.193 A 
ATOM     20  C13 T05     1      92.177 126.784 134.790  0.00  0.00    +0.109 C 
ATOM     21  N3  T05     1      94.056 125.370 135.670  0.00  0.00    -0.210 NA
ENDBRANCH   4  16
BRANCH   1  22
ATOM     22  O1  T05     1      94.028 120.454 138.144  0.00  0.00    -0.469 OA
BRANCH  22  23
ATOM     23  C7  T05     1      93.074 120.610 139.216  0.00  0.00    +0.286 C 
BRANCH  23  29
ATOM     24  C1  T05     1      94.884 122.360 143.371  0.00  0.00    +0.065 C 
ATOM     25  C2  T05     1      94.549 121.121 142.556  0.00  0.00    +0.039 A 
ATOM     26  C3  T05     1      94.811 119.831 143.053  0.00  0.00    +0.023 A 
ATOM     27  C4  T05     1      94.487 118.721 142.257  0.00  0.00    +0.004 A 
ATOM     28  C5  T05     1      93.916 118.941 140.995  0.00  0.00    +0.027 A 
ATOM     29  C6  T05     1      93.688 120.269 140.570  0.00  0.00    +0.079 A 
ATOM     30  N6  T05     1      94.003 121.331 141.341  0.00  0.00    -0.253 NA
ENDBRANCH  23  29
ENDBRANCH  22  23
ENDBRANCH   1  22
TORSDOF 4
ENDMDL
MODEL 7
REMARK VINA RESULT:    -7.647      2.740      7.080
REMARK INTER + INTRA:         -10.812
REMARK INTER:                  -9.390
REMARK INTRA:                  -1.423
REMARK UNBOUND:                -1.377
REMARK  Name = ligands_pdb/TRN_CHEMBL123530.pdb
REMARK  6 active torsions:
REMARK  status: ('A' for Active; 'I' for Inactive)
REMARK    1  A    between atoms: C1_1  and  C2_2
REMARK    2  A    between atoms: C6_6  and  C7_7
REMARK    3  A    between atoms: C7_7  and  O1_8
REMARK    4  A    between atoms: O1_8  and  C8_9
REMARK    5  A    between atoms: C9_12  and  C10_13
REMARK    6  A    between atoms: C12_16  and  C13_17
REMARK                            x       y       z     vdW  Elec       q    Type
REMARK                         _______ _______ _______ _____ _____    ______ ____
ROOT
ATOM      1  C8  T05     1      94.402 121.270 142.601  0.00  0.00    +0.237 A 
ATOM      2  N1  T05     1      95.221 121.499 141.543  0.00  0.00    -0.125 NA
ATOM      3  N2  T05     1      96.242 120.629 141.340  0.00  0.00    -0.187 N 
ATOM      4  C9  T05     1      97.240 120.539 140.405  0.00  0.00    +0.207 A 
ATOM      5  N4  T05     1      98.007 119.473 140.651  0.00  0.00    -0.125 NA
ATOM      6  N5  T05     1      97.551 118.890 141.681  0.00  0.00    -0.127 NA
ATOM      7  C14 T05     1      96.512 119.544 142.112  0.00  0.00    +0.182 A 
ATOM      8  C15 T05     1      95.684 119.282 143.212  0.00  0.00    +0.010 A 
ATOM      9  C16 T05     1      94.615 120.162 143.456  0.00  0.00    +0.026 A 
ATOM     10  C17 T05     1      93.778 119.784 144.678  0.00  0.00    +0.025 C 
ATOM     11  C18 T05     1      94.747 119.743 145.895  0.00  0.00    +0.009 C 
ATOM     12  C19 T05     1      95.938 118.769 145.618  0.00  0.00    +0.009 C 
ATOM     13  C20 T05     1      95.803 118.130 144.205  0.00  0.00    +0.023 C 
ATOM     14  C21 T05     1      94.451 117.362 144.162  0.00  0.00    +0.009 C 
ATOM     15  C22 T05     1      93.258 118.336 144.440  0.00  0.00    +0.009 C 
ENDROOT
BRANCH   4  16
ATOM     16  C10 T05     1      97.488 121.423 139.296  0.00  0.00    +0.148 A 
ATOM     17  C11 T05     1      97.156 121.049 138.023  0.00  0.00    +0.228 A 
ATOM     18  O2  T05     1      97.507 122.076 137.218  0.00  0.00    -0.447 OA
ATOM     19  C12 T05     1      98.025 122.990 138.092  0.00  0.00    +0.193 A 
ATOM     20  C13 T05     1      98.534 124.295 137.549  0.00  0.00    +0.109 C 
ATOM     21  N3  T05     1      98.017 122.606 139.332  0.00  0.00    -0.210 NA
ENDBRANCH   4  16
BRANCH   1  22
ATOM     22  O1  T05     1      93.346 122.114 142.866  0.00  0.00    -0.469 OA
BRANCH  22  23
ATOM     23  C7  T05     1      92.186 122.175 142.009  0.00  0.00    +0.286 C 
BRANCH  23  29
ATOM     24  C1  T05     1      90.775 118.033 139.899  0.00  0.00    +0.065 C 
ATOM     25  C2  T05     1      90.663 118.939 141.114  0.00  0.00    +0.039 A 
ATOM     26  C3  T05     1      89.833 118.600 142.199  0.00  0.00    +0.023 A 
ATOM     27  C4  T05     1      89.762 119.475 143.295  0.00  0.00    +0.004 A 
ATOM     28  C5  T05     1      90.522 120.655 143.265  0.00  0.00    +0.027 A 
ATOM     29  C6  T05     1      91.327 120.921 142.136  0.00  0.00    +0.079 A 
ATOM     30  N6  T05     1      91.390 120.074 141.086  0.00  0.00    -0.253 NA
ENDBRANCH  23  29
ENDBRANCH  22  23
ENDBRANCH   1  22
TORSDOF 4
ENDMDL
MODEL 8
REMARK VINA RESULT:    -7.617      2.276      6.702
REMARK INTER + INTRA:         -10.775
REMARK INTER:                 -10.126
REMARK INTRA:                  -0.649
REMARK UNBOUND:                -1.377
REMARK  Name = ligands_pdb/TRN_CHEMBL123530.pdb
REMARK  6 active torsions:
REMARK  status: ('A' for Active; 'I' for Inactive)
REMARK    1  A    between atoms: C1_1  and  C2_2
REMARK    2  A    between atoms: C6_6  and  C7_7
REMARK    3  A    between atoms: C7_7  and  O1_8
REMARK    4  A    between atoms: O1_8  and  C8_9
REMARK    5  A    between atoms: C9_12  and  C10_13
REMARK    6  A    between atoms: C12_16  and  C13_17
REMARK                            x       y       z     vdW  Elec       q    Type
REMARK                         _______ _______ _______ _____ _____    ______ ____
ROOT
ATOM      1  C8  T05     1      93.815 119.009 140.895  0.00  0.00    +0.237 A 
ATOM      2  N1  T05     1      95.009 119.303 140.321  0.00  0.00    -0.125 NA
ATOM      3  N2  T05     1      94.992 120.033 139.178  0.00  0.00    -0.187 N 
ATOM      4  C9  T05     1      95.969 120.508 138.341  0.00  0.00    +0.207 A 
ATOM      5  N4  T05     1      95.419 121.185 137.329  0.00  0.00    -0.125 NA
ATOM      6  N5  T05     1      94.159 121.164 137.481  0.00  0.00    -0.127 NA
ATOM      7  C14 T05     1      93.874 120.494 138.559  0.00  0.00    +0.182 A 
ATOM      8  C15 T05     1      92.626 120.207 139.128  0.00  0.00    +0.010 A 
ATOM      9  C16 T05     1      92.602 119.451 140.314  0.00  0.00    +0.026 A 
ATOM     10  C17 T05     1      91.192 119.196 140.848  0.00  0.00    +0.025 C 
ATOM     11  C18 T05     1      90.405 118.472 139.718  0.00  0.00    +0.009 C 
ATOM     12  C19 T05     1      90.440 119.310 138.398  0.00  0.00    +0.009 C 
ATOM     13  C20 T05     1      91.254 120.621 138.607  0.00  0.00    +0.023 C 
ATOM     14  C21 T05     1      90.567 121.427 139.746  0.00  0.00    +0.009 C 
ATOM     15  C22 T05     1      90.531 120.588 141.066  0.00  0.00    +0.009 C 
ENDROOT
BRANCH   4  16
ATOM     16  C10 T05     1      97.393 120.342 138.469  0.00  0.00    +0.148 A 
ATOM     17  C11 T05     1      98.245 121.346 138.101  0.00  0.00    +0.228 A 
ATOM     18  O2  T05     1      99.496 120.893 138.337  0.00  0.00    -0.447 OA
ATOM     19  C12 T05     1      99.282 119.639 138.834  0.00  0.00    +0.193 A 
ATOM     20  C13 T05     1     100.471 118.806 139.220  0.00  0.00    +0.109 C 
ATOM     21  N3  T05     1      98.030 119.304 138.915  0.00  0.00    -0.210 NA
ENDBRANCH   4  16
BRANCH   1  22
ATOM     22  O1  T05     1      93.758 118.271 142.058  0.00  0.00    -0.469 OA
BRANCH  22  23
ATOM     23  C7  T05     1      93.562 118.893 143.346  0.00  0.00    +0.286 C 
BRANCH  23  29
ATOM     24  C1  T05     1      95.420 118.843 147.834  0.00  0.00    +0.065 C 
ATOM     25  C2  T05     1      95.709 118.831 146.342  0.00  0.00    +0.039 A 
ATOM     26  C3  T05     1      97.031 118.800 145.857  0.00  0.00    +0.023 A 
ATOM     27  C4  T05     1      97.242 118.796 144.469  0.00  0.00    +0.004 A 
ATOM     28  C5  T05     1      96.126 118.825 143.618  0.00  0.00    +0.027 A 
ATOM     29  C6  T05     1      94.834 118.858 144.186  0.00  0.00    +0.079 A 
ATOM     30  N6  T05     1      94.639 118.862 145.522  0.00  0.00    -0.253 NA
ENDBRANCH  23  29
ENDBRANCH  22  23
ENDBRANCH   1  22
TORSDOF 4
ENDMDL
MODEL 9
REMARK VINA RESULT:    -7.501      3.830      6.183
REMARK INTER + INTRA:         -10.632
REMARK INTER:                  -9.941
REMARK INTRA:                  -0.691
REMARK UNBOUND:                -1.377
REMARK  Name = ligands_pdb/TRN_CHEMBL123530.pdb
REMARK  6 active torsions:
REMARK  status: ('A' for Active; 'I' for Inactive)
REMARK    1  A    between atoms: C1_1  and  C2_2
REMARK    2  A    between atoms: C6_6  and  C7_7
REMARK    3  A    between atoms: C7_7  and  O1_8
REMARK    4  A    between atoms: O1_8  and  C8_9
REMARK    5  A    between atoms: C9_12  and  C10_13
REMARK    6  A    between atoms: C12_16  and  C13_17
REMARK                            x       y       z     vdW  Elec       q    Type
REMARK                         _______ _______ _______ _____ _____    ______ ____
ROOT
ATOM      1  C8  T05     1      95.887 121.558 138.582  0.00  0.00    +0.237 A 
ATOM      2  N1  T05     1      94.901 121.003 139.333  0.00  0.00    -0.125 NA
ATOM      3  N2  T05     1      95.071 119.721 139.742  0.00  0.00    -0.187 N 
ATOM      4  C9  T05     1      94.315 118.856 140.489  0.00  0.00    +0.207 A 
ATOM      5  N4  T05     1      94.941 117.682 140.607  0.00  0.00    -0.125 NA
ATOM      6  N5  T05     1      96.041 117.758 139.981  0.00  0.00    -0.127 NA
ATOM      7  C14 T05     1      96.149 118.945 139.459  0.00  0.00    +0.182 A 
ATOM      8  C15 T05     1      97.184 119.490 138.685  0.00  0.00    +0.010 A 
ATOM      9  C16 T05     1      97.044 120.817 138.243  0.00  0.00    +0.026 A 
ATOM     10  C17 T05     1      98.227 121.310 137.408  0.00  0.00    +0.025 C 
ATOM     11  C18 T05     1      98.366 120.338 136.201  0.00  0.00    +0.009 C 
ATOM     12  C19 T05     1      98.513 118.863 136.697  0.00  0.00    +0.009 C 
ATOM     13  C20 T05     1      98.474 118.803 138.252  0.00  0.00    +0.023 C 
ATOM     14  C21 T05     1      99.646 119.676 138.786  0.00  0.00    +0.009 C 
ATOM     15  C22 T05     1      99.500 121.153 138.290  0.00  0.00    +0.009 C 
ENDROOT
BRANCH   4  16
ATOM     16  C10 T05     1      93.031 119.105 141.090  0.00  0.00    +0.148 A 
ATOM     17  C11 T05     1      91.879 118.834 140.404  0.00  0.00    +0.228 A 
ATOM     18  O2  T05     1      90.858 119.170 141.222  0.00  0.00    -0.447 OA
ATOM     19  C12 T05     1      91.495 119.619 142.344  0.00  0.00    +0.193 A 
ATOM     20  C13 T05     1      90.664 120.092 143.503  0.00  0.00    +0.109 C 
ATOM     21  N3  T05     1      92.791 119.583 142.271  0.00  0.00    -0.210 NA
ENDBRANCH   4  16
BRANCH   1  22
ATOM     22  O1  T05     1      95.781 122.856 138.134  0.00  0.00    -0.469 OA
BRANCH  22  23
ATOM     23  C7  T05     1      95.180 123.177 136.861  0.00  0.00    +0.286 C 
BRANCH  23  29
ATOM     24  C1  T05     1      94.244 126.690 133.638  0.00  0.00    +0.065 C 
ATOM     25  C2  T05     1      94.826 126.339 134.998  0.00  0.00    +0.039 A 
ATOM     26  C3  T05     1      95.390 127.328 135.825  0.00  0.00    +0.023 A 
ATOM     27  C4  T05     1      95.918 126.949 137.070  0.00  0.00    +0.004 A 
ATOM     28  C5  T05     1      95.864 125.596 137.440  0.00  0.00    +0.027 A 
ATOM     29  C6  T05     1      95.284 124.666 136.549  0.00  0.00    +0.079 A 
ATOM     30  N6  T05     1      94.778 125.039 135.354  0.00  0.00    -0.253 NA
ENDBRANCH  23  29
ENDBRANCH  22  23
ENDBRANCH   1  22
TORSDOF 4
ENDMDL
MODEL 10
REMARK VINA RESULT:    -7.384      4.718      7.417
REMARK INTER + INTRA:         -10.488
REMARK INTER:                  -9.727
REMARK INTRA:                  -0.761
REMARK UNBOUND:                -1.377
REMARK  Name = ligands_pdb/TRN_CHEMBL123530.pdb
REMARK  6 active torsions:
REMARK  status: ('A' for Active; 'I' for Inactive)
REMARK    1  A    between atoms: C1_1  and  C2_2
REMARK    2  A    between atoms: C6_6  and  C7_7
REMARK    3  A    between atoms: C7_7  and  O1_8
REMARK    4  A    between atoms: O1_8  and  C8_9
REMARK    5  A    between atoms: C9_12  and  C10_13
REMARK    6  A    between atoms: C12_16  and  C13_17
REMARK                            x       y       z     vdW  Elec       q    Type
REMARK                         _______ _______ _______ _____ _____    ______ ____
ROOT
ATOM      1  C8  T05     1      95.473 122.100 138.193  0.00  0.00    +0.237 A 
ATOM      2  N1  T05     1      94.157 121.770 138.253  0.00  0.00    -0.125 NA
ATOM      3  N2  T05     1      93.843 120.515 138.662  0.00  0.00    -0.187 N 
ATOM      4  C9  T05     1      92.661 119.844 138.841  0.00  0.00    +0.207 A 
ATOM      5  N4  T05     1      92.898 118.600 139.266  0.00  0.00    -0.125 NA
ATOM      6  N5  T05     1      94.155 118.451 139.364  0.00  0.00    -0.127 NA
ATOM      7  C14 T05     1      94.740 119.559 139.016  0.00  0.00    +0.182 A 
ATOM      8  C15 T05     1      96.107 119.869 138.964  0.00  0.00    +0.010 A 
ATOM      9  C16 T05     1      96.472 121.161 138.545  0.00  0.00    +0.026 A 
ATOM     10  C17 T05     1      97.983 121.392 138.524  0.00  0.00    +0.025 C 
ATOM     11  C18 T05     1      98.593 120.314 137.583  0.00  0.00    +0.009 C 
ATOM     12  C19 T05     1      98.179 118.879 138.047  0.00  0.00    +0.009 C 
ATOM     13  C20 T05     1      97.276 118.956 139.313  0.00  0.00    +0.023 C 
ATOM     14  C21 T05     1      98.088 119.675 140.428  0.00  0.00    +0.009 C 
ATOM     15  C22 T05     1      98.504 121.110 139.964  0.00  0.00    +0.009 C 
ENDROOT
BRANCH   4  16
ATOM     16  C10 T05     1      91.327 120.340 138.626  0.00  0.00    +0.148 A 
ATOM     17  C11 T05     1      90.420 120.359 139.649  0.00  0.00    +0.228 A 
ATOM     18  O2  T05     1      89.278 120.872 139.139  0.00  0.00    -0.447 OA
ATOM     19  C12 T05     1      89.606 121.120 137.836  0.00  0.00    +0.193 A 
ATOM     20  C13 T05     1      88.560 121.709 136.932  0.00  0.00    +0.109 C 
ATOM     21  N3  T05     1      90.826 120.805 137.524  0.00  0.00    -0.210 NA
ENDBRANCH   4  16
BRANCH   1  22
ATOM     22  O1  T05     1      95.863 123.357 137.787  0.00  0.00    -0.469 OA
BRANCH  22  23
ATOM     23  C7  T05     1      95.535 123.872 136.479  0.00  0.00    +0.286 C 
BRANCH  23  29
ATOM     24  C1  T05     1      95.363 127.883 139.216  0.00  0.00    +0.065 C 
ATOM     25  C2  T05     1      95.343 127.305 137.810  0.00  0.00    +0.039 A 
ATOM     26  C3  T05     1      95.222 128.140 136.683  0.00  0.00    +0.023 A 
ATOM     27  C4  T05     1      95.204 127.554 135.407  0.00  0.00    +0.004 A 
ATOM     28  C5  T05     1      95.305 126.158 135.305  0.00  0.00    +0.027 A 
ATOM     29  C6  T05     1      95.420 125.393 136.487  0.00  0.00    +0.079 A 
ATOM     30  N6  T05     1      95.437 125.964 137.710  0.00  0.00    -0.253 NA
ENDBRANCH  23  29
ENDBRANCH  22  23
ENDBRANCH   1  22
TORSDOF 4
ENDMDL
