MODEL 1
REMARK VINA RESULT:    -8.341      0.000      0.000
REMARK INTER + INTRA:         -11.642
REMARK INTER:                 -10.291
REMARK INTRA:                  -1.351
REMARK UNBOUND:                -1.351
REMARK  Name = ligands_pdb/TRN_CHEMBL361105.pdb
REMARK  4 active torsions:
REMARK  status: ('A' for Active; 'I' for Inactive)
REMARK    1  A    between atoms: C4_4  and  C5_5
REMARK    2  A    between atoms: C5_5  and  O1_6
REMARK    3  A    between atoms: O1_6  and  C6_7
REMARK    4  A    between atoms: C7_10  and  C8_11
REMARK                            x       y       z     vdW  Elec       q    Type
REMARK                         _______ _______ _______ _____ _____    ______ ____
ROOT
ATOM      1  C6  T17     1      95.238 120.616 142.521  0.00  0.00    +0.237 A 
ATOM      2  N1  T17     1      95.367 120.026 143.736  0.00  0.00    -0.125 NA
ATOM      3  N2  T17     1      94.497 119.035 144.058  0.00  0.00    -0.189 N 
ATOM      4  C7  T17     1      94.323 118.267 145.190  0.00  0.00    +0.187 A 
ATOM      5  N4  T17     1      93.254 117.487 144.989  0.00  0.00    -0.127 NA
ATOM      6  N5  T17     1      92.772 117.697 143.835  0.00  0.00    -0.127 NA
ATOM      7  C13 T17     1      93.486 118.611 143.258  0.00  0.00    +0.182 A 
ATOM      8  C14 T17     1      93.319 119.205 141.999  0.00  0.00    +0.010 A 
ATOM      9  C15 T17     1      94.218 120.218 141.626  0.00  0.00    +0.026 A 
ATOM     10  C16 T17     1      93.945 120.801 140.240  0.00  0.00    +0.025 C 
ATOM     11  C17 T17     1      92.486 121.343 140.257  0.00  0.00    +0.009 C 
ATOM     12  C18 T17     1      91.487 120.217 140.683  0.00  0.00    +0.009 C 
ATOM     13  C19 T17     1      92.248 118.888 140.961  0.00  0.00    +0.023 C 
ATOM     14  C20 T17     1      92.994 118.491 139.655  0.00  0.00    +0.009 C 
ATOM     15  C21 T17     1      93.995 119.616 139.232  0.00  0.00    +0.009 C 
ENDROOT
BRANCH   4  16
ATOM     16  C8  T17     1      95.124 118.289 146.420  0.00  0.00    +0.039 A 
ATOM     17  C9  T17     1      95.946 117.196 146.757  0.00  0.00    +0.014 A 
ATOM     18  C10 T17     1      96.706 117.250 147.937  0.00  0.00    +0.020 A 
ATOM     19  C11 T17     1      96.626 118.400 148.741  0.00  0.00    +0.111 A 
ATOM     20  N3  T17     1      95.852 119.455 148.425  0.00  0.00    -0.263 NA
ATOM     21  C12 T17     1      95.121 119.399 147.292  0.00  0.00    +0.122 A 
ENDBRANCH   4  16
BRANCH   1  22
ATOM     22  O1  T17     1      96.098 121.623 142.134  0.00  0.00    -0.469 OA
BRANCH  22  23
ATOM     23  C5  T17     1      97.455 121.350 141.728  0.00  0.00    +0.286 C 
BRANCH  23  27
ATOM     24  C1  T17     1      97.464 119.770 137.750  0.00  0.00    +0.020 A 
ATOM     25  C2  T17     1      97.683 118.873 138.807  0.00  0.00    +0.003 A 
ATOM     26  C3  T17     1      97.686 119.372 140.120  0.00  0.00    +0.027 A 
ATOM     27  C4  T17     1      97.476 120.750 140.329  0.00  0.00    +0.079 A 
ATOM     28  N6  T17     1      97.259 121.609 139.308  0.00  0.00    -0.256 NA
ATOM     29  C22 T17     1      97.255 121.127 138.049  0.00  0.00    +0.111 A 
ENDBRANCH  23  27
ENDBRANCH  22  23
ENDBRANCH   1  22
TORSDOF 4
ENDMDL
MODEL 2
REMARK VINA RESULT:    -7.961      3.624      8.696
REMARK INTER + INTRA:         -11.174
REMARK INTER:                  -9.814
REMARK INTRA:                  -1.360
REMARK UNBOUND:                -1.351
REMARK  Name = ligands_pdb/TRN_CHEMBL361105.pdb
REMARK  4 active torsions:
REMARK  status: ('A' for Active; 'I' for Inactive)
REMARK    1  A    between atoms: C4_4  and  C5_5
REMARK    2  A    between atoms: C5_5  and  O1_6
REMARK    3  A    between atoms: O1_6  and  C6_7
REMARK    4  A    between atoms: C7_10  and  C8_11
REMARK                            x       y       z     vdW  Elec       q    Type
REMARK                         _______ _______ _______ _____ _____    ______ ____
ROOT
ATOM      1  C6  T17     1      95.468 121.806 138.042  0.00  0.00    +0.237 A 
ATOM      2  N1  T17     1      95.468 123.140 137.788  0.00  0.00    -0.125 NA
ATOM      3  N2  T17     1      96.663 123.746 137.568  0.00  0.00    -0.189 N 
ATOM      4  C7  T17     1      97.023 125.054 137.325  0.00  0.00    +0.187 A 
ATOM      5  N4  T17     1      98.359 125.100 137.260  0.00  0.00    -0.127 NA
ATOM      6  N5  T17     1      98.844 123.941 137.425  0.00  0.00    -0.127 NA
ATOM      7  C13 T17     1      97.864 123.114 137.612  0.00  0.00    +0.182 A 
ATOM      8  C14 T17     1      97.900 121.739 137.880  0.00  0.00    +0.010 A 
ATOM      9  C15 T17     1      96.678 121.077 138.089  0.00  0.00    +0.026 A 
ATOM     10  C16 T17     1      96.830 119.584 138.377  0.00  0.00    +0.025 C 
ATOM     11  C17 T17     1      97.744 119.457 139.631  0.00  0.00    +0.009 C 
ATOM     12  C18 T17     1      99.100 120.203 139.401  0.00  0.00    +0.009 C 
ATOM     13  C19 T17     1      99.135 120.849 137.986  0.00  0.00    +0.023 C 
ATOM     14  C20 T17     1      98.955 119.708 136.943  0.00  0.00    +0.009 C 
ATOM     15  C21 T17     1      97.597 118.966 137.172  0.00  0.00    +0.009 C 
ENDROOT
BRANCH   4  16
ATOM     16  C8  T17     1      96.138 126.216 137.182  0.00  0.00    +0.039 A 
ATOM     17  C9  T17     1      95.486 126.472 135.960  0.00  0.00    +0.014 A 
ATOM     18  C10 T17     1      94.639 127.587 135.857  0.00  0.00    +0.020 A 
ATOM     19  C11 T17     1      94.464 128.410 136.982  0.00  0.00    +0.111 A 
ATOM     20  N3  T17     1      95.074 128.172 138.158  0.00  0.00    -0.263 NA
ATOM     21  C12 T17     1      95.889 127.100 138.253  0.00  0.00    +0.122 A 
ENDBRANCH   4  16
BRANCH   1  22
ATOM     22  O1  T17     1      94.284 121.134 138.264  0.00  0.00    -0.469 OA
BRANCH  22  23
ATOM     23  C5  T17     1      93.518 121.321 139.472  0.00  0.00    +0.286 C 
BRANCH  23  27
ATOM     24  C1  T17     1      95.502 119.469 142.782  0.00  0.00    +0.020 A 
ATOM     25  C2  T17     1      94.771 118.641 141.914  0.00  0.00    +0.003 A 
ATOM     26  C3  T17     1      94.111 119.230 140.823  0.00  0.00    +0.027 A 
ATOM     27  C4  T17     1      94.201 120.625 140.641  0.00  0.00    +0.079 A 
ATOM     28  N6  T17     1      94.910 121.417 141.475  0.00  0.00    -0.256 NA
ATOM     29  C22 T17     1      95.543 120.849 142.521  0.00  0.00    +0.111 A 
ENDBRANCH  23  27
ENDBRANCH  22  23
ENDBRANCH   1  22
TORSDOF 4
ENDMDL
MODEL 3
REMARK VINA RESULT:    -7.921      2.607      7.136
REMARK INTER + INTRA:         -11.125
REMARK INTER:                 -10.069
REMARK INTRA:                  -1.056
REMARK UNBOUND:                -1.351
REMARK  Name = ligands_pdb/TRN_CHEMBL361105.pdb
REMARK  4 active torsions:
REMARK  status: ('A' for Active; 'I' for Inactive)
REMARK    1  A    between atoms: C4_4  and  C5_5
REMARK    2  A    between atoms: C5_5  and  O1_6
REMARK    3  A    between atoms: O1_6  and  C6_7
REMARK    4  A    between atoms: C7_10  and  C8_11
REMARK                            x       y       z     vdW  Elec       q    Type
REMARK                         _______ _______ _______ _____ _____    ______ ____
ROOT
ATOM      1  C6  T17     1      93.901 118.586 141.493  0.00  0.00    +0.237 A 
ATOM      2  N1  T17     1      94.926 118.814 140.632  0.00  0.00    -0.125 NA
ATOM      3  N2  T17     1      96.174 118.945 141.148  0.00  0.00    -0.189 N 
ATOM      4  C7  T17     1      97.403 119.211 140.582  0.00  0.00    +0.187 A 
ATOM      5  N4  T17     1      98.294 119.308 141.575  0.00  0.00    -0.127 NA
ATOM      6  N5  T17     1      97.726 119.110 142.691  0.00  0.00    -0.127 NA
ATOM      7  C13 T17     1      96.467 118.893 142.473  0.00  0.00    +0.182 A 
ATOM      8  C14 T17     1      95.432 118.668 143.390  0.00  0.00    +0.010 A 
ATOM      9  C15 T17     1      94.130 118.504 142.886  0.00  0.00    +0.026 A 
ATOM     10  C16 T17     1      93.078 118.270 143.969  0.00  0.00    +0.025 C 
ATOM     11  C17 T17     1      93.142 119.491 144.933  0.00  0.00    +0.009 C 
ATOM     12  C18 T17     1      94.594 119.679 145.486  0.00  0.00    +0.009 C 
ATOM     13  C19 T17     1      95.543 118.588 144.910  0.00  0.00    +0.023 C 
ATOM     14  C20 T17     1      94.975 117.202 145.327  0.00  0.00    +0.009 C 
ATOM     15  C21 T17     1      93.525 117.013 144.771  0.00  0.00    +0.009 C 
ENDROOT
BRANCH   4  16
ATOM     16  C8  T17     1      97.714 119.388 139.158  0.00  0.00    +0.039 A 
ATOM     17  C9  T17     1      98.943 118.941 138.634  0.00  0.00    +0.014 A 
ATOM     18  C10 T17     1      99.208 119.119 137.266  0.00  0.00    +0.020 A 
ATOM     19  C11 T17     1      98.233 119.733 136.462  0.00  0.00    +0.111 A 
ATOM     20  N3  T17     1      97.051 120.155 136.949  0.00  0.00    -0.263 NA
ATOM     21  C12 T17     1      96.800 119.986 138.264  0.00  0.00    +0.122 A 
ENDBRANCH   4  16
BRANCH   1  22
ATOM     22  O1  T17     1      92.612 118.435 141.027  0.00  0.00    -0.469 OA
BRANCH  22  23
ATOM     23  C5  T17     1      91.810 119.565 140.628  0.00  0.00    +0.286 C 
BRANCH  23  27
ATOM     24  C1  T17     1      89.277 120.762 143.864  0.00  0.00    +0.020 A 
ATOM     25  C2  T17     1      90.230 121.686 143.406  0.00  0.00    +0.003 A 
ATOM     26  C3  T17     1      91.072 121.312 142.347  0.00  0.00    +0.027 A 
ATOM     27  C4  T17     1      90.936 120.026 141.786  0.00  0.00    +0.079 A 
ATOM     28  N6  T17     1      90.013 119.142 142.225  0.00  0.00    -0.256 NA
ATOM     29  C22 T17     1      89.205 119.504 143.242  0.00  0.00    +0.111 A 
ENDBRANCH  23  27
ENDBRANCH  22  23
ENDBRANCH   1  22
TORSDOF 4
ENDMDL
MODEL 4
REMARK VINA RESULT:    -7.784      2.486      6.911
REMARK INTER + INTRA:         -10.955
REMARK INTER:                 -10.353
REMARK INTRA:                  -0.601
REMARK UNBOUND:                -1.351
REMARK  Name = ligands_pdb/TRN_CHEMBL361105.pdb
REMARK  4 active torsions:
REMARK  status: ('A' for Active; 'I' for Inactive)
REMARK    1  A    between atoms: C4_4  and  C5_5
REMARK    2  A    between atoms: C5_5  and  O1_6
REMARK    3  A    between atoms: O1_6  and  C6_7
REMARK    4  A    between atoms: C7_10  and  C8_11
REMARK                            x       y       z     vdW  Elec       q    Type
REMARK                         _______ _______ _______ _____ _____    ______ ____
ROOT
ATOM      1  C6  T17     1      94.094 118.658 141.806  0.00  0.00    +0.237 A 
ATOM      2  N1  T17     1      95.154 118.961 141.014  0.00  0.00    -0.125 NA
ATOM      3  N2  T17     1      96.382 119.016 141.588  0.00  0.00    -0.189 N 
ATOM      4  C7  T17     1      97.636 119.322 141.101  0.00  0.00    +0.187 A 
ATOM      5  N4  T17     1      98.488 119.297 142.132  0.00  0.00    -0.127 NA
ATOM      6  N5  T17     1      97.874 118.989 143.198  0.00  0.00    -0.127 NA
ATOM      7  C13 T17     1      96.622 118.818 142.910  0.00  0.00    +0.182 A 
ATOM      8  C14 T17     1      95.549 118.512 143.758  0.00  0.00    +0.010 A 
ATOM      9  C15 T17     1      94.267 118.423 143.190  0.00  0.00    +0.026 A 
ATOM     10  C16 T17     1      93.170 118.090 144.200  0.00  0.00    +0.025 C 
ATOM     11  C17 T17     1      93.211 119.200 145.292  0.00  0.00    +0.009 C 
ATOM     12  C18 T17     1      94.641 119.304 145.917  0.00  0.00    +0.009 C 
ATOM     13  C19 T17     1      95.600 118.267 145.262  0.00  0.00    +0.023 C 
ATOM     14  C20 T17     1      94.999 116.852 145.505  0.00  0.00    +0.009 C 
ATOM     15  C21 T17     1      93.570 116.748 144.878  0.00  0.00    +0.009 C 
ENDROOT
BRANCH   4  16
ATOM     16  C8  T17     1      98.004 119.647 139.718  0.00  0.00    +0.039 A 
ATOM     17  C9  T17     1      97.626 118.798 138.659  0.00  0.00    +0.014 A 
ATOM     18  C10 T17     1      97.988 119.139 137.346  0.00  0.00    +0.020 A 
ATOM     19  C11 T17     1      98.712 120.324 137.129  0.00  0.00    +0.111 A 
ATOM     20  N3  T17     1      99.072 121.148 138.131  0.00  0.00    -0.263 NA
ATOM     21  C12 T17     1      98.724 120.817 139.392  0.00  0.00    +0.122 A 
ENDBRANCH   4  16
BRANCH   1  22
ATOM     22  O1  T17     1      92.822 118.579 141.278  0.00  0.00    -0.469 OA
BRANCH  22  23
ATOM     23  C5  T17     1      92.527 119.016 139.936  0.00  0.00    +0.286 C 
BRANCH  23  27
ATOM     24  C1  T17     1      88.652 117.570 138.831  0.00  0.00    +0.020 A 
ATOM     25  C2  T17     1      89.145 118.696 138.153  0.00  0.00    +0.003 A 
ATOM     26  C3  T17     1      90.413 119.188 138.502  0.00  0.00    +0.027 A 
ATOM     27  C4  T17     1      91.142 118.540 139.520  0.00  0.00    +0.079 A 
ATOM     28  N6  T17     1      90.667 117.452 140.165  0.00  0.00    -0.256 NA
ATOM     29  C22 T17     1      89.450 116.981 139.827  0.00  0.00    +0.111 A 
ENDBRANCH  23  27
ENDBRANCH  22  23
ENDBRANCH   1  22
TORSDOF 4
ENDMDL
MODEL 5
REMARK VINA RESULT:    -7.515      4.124      6.644
REMARK INTER + INTRA:         -10.623
REMARK INTER:                  -9.577
REMARK INTRA:                  -1.047
REMARK UNBOUND:                -1.351
REMARK  Name = ligands_pdb/TRN_CHEMBL361105.pdb
REMARK  4 active torsions:
REMARK  status: ('A' for Active; 'I' for Inactive)
REMARK    1  A    between atoms: C4_4  and  C5_5
REMARK    2  A    between atoms: C5_5  and  O1_6
REMARK    3  A    between atoms: O1_6  and  C6_7
REMARK    4  A    between atoms: C7_10  and  C8_11
REMARK                            x       y       z     vdW  Elec       q    Type
REMARK                         _______ _______ _______ _____ _____    ______ ____
ROOT
ATOM      1  C6  T17     1      94.730 121.555 138.893  0.00  0.00    +0.237 A 
ATOM      2  N1  T17     1      93.448 121.113 138.846  0.00  0.00    -0.125 NA
ATOM      3  N2  T17     1      93.201 119.835 139.230  0.00  0.00    -0.189 N 
ATOM      4  C7  T17     1      92.053 119.070 139.271  0.00  0.00    +0.187 A 
ATOM      5  N4  T17     1      92.402 117.839 139.664  0.00  0.00    -0.127 NA
ATOM      6  N5  T17     1      93.650 117.788 139.880  0.00  0.00    -0.127 NA
ATOM      7  C13 T17     1      94.154 118.955 139.630  0.00  0.00    +0.182 A 
ATOM      8  C14 T17     1      95.490 119.376 139.681  0.00  0.00    +0.010 A 
ATOM      9  C15 T17     1      95.777 120.702 139.313  0.00  0.00    +0.026 A 
ATOM     10  C16 T17     1      97.260 121.055 139.400  0.00  0.00    +0.025 C 
ATOM     11  C17 T17     1      98.017 120.055 138.477  0.00  0.00    +0.009 C 
ATOM     12  C18 T17     1      97.690 118.579 138.881  0.00  0.00    +0.009 C 
ATOM     13  C19 T17     1      96.706 118.549 140.086  0.00  0.00    +0.023 C 
ATOM     14  C20 T17     1      97.384 119.300 141.267  0.00  0.00    +0.009 C 
ATOM     15  C21 T17     1      97.708 120.776 140.864  0.00  0.00    +0.009 C 
ENDROOT
BRANCH   4  16
ATOM     16  C8  T17     1      90.688 119.485 138.931  0.00  0.00    +0.039 A 
ATOM     17  C9  T17     1      89.940 118.770 137.975  0.00  0.00    +0.014 A 
ATOM     18  C10 T17     1      88.633 119.188 137.676  0.00  0.00    +0.020 A 
ATOM     19  C11 T17     1      88.110 120.305 138.348  0.00  0.00    +0.111 A 
ATOM     20  N3  T17     1      88.809 120.991 139.271  0.00  0.00    -0.263 NA
ATOM     21  C12 T17     1      90.066 120.589 139.554  0.00  0.00    +0.122 A 
ENDBRANCH   4  16
BRANCH   1  22
ATOM     22  O1  T17     1      95.042 122.847 138.524  0.00  0.00    -0.469 OA
BRANCH  22  23
ATOM     23  C5  T17     1      95.309 123.204 137.152  0.00  0.00    +0.286 C 
BRANCH  23  27
ATOM     24  C1  T17     1      99.524 123.426 136.439  0.00  0.00    +0.020 A 
ATOM     25  C2  T17     1      98.977 124.303 137.388  0.00  0.00    +0.003 A 
ATOM     26  C3  T17     1      97.596 124.248 137.636  0.00  0.00    +0.027 A 
ATOM     27  C4  T17     1      96.810 123.321 136.921  0.00  0.00    +0.079 A 
ATOM     28  N6  T17     1      97.341 122.474 136.013  0.00  0.00    -0.256 NA
ATOM     29  C22 T17     1      98.667 122.528 135.778  0.00  0.00    +0.111 A 
ENDBRANCH  23  27
ENDBRANCH  22  23
ENDBRANCH   1  22
TORSDOF 4
ENDMDL
MODEL 6
REMARK VINA RESULT:    -7.396      2.381      6.826
REMARK INTER + INTRA:         -10.477
REMARK INTER:                  -9.571
REMARK INTRA:                  -0.906
REMARK UNBOUND:                -1.351
REMARK  Name = ligands_pdb/TRN_CHEMBL361105.pdb
REMARK  4 active torsions:
REMARK  status: ('A' for Active; 'I' for Inactive)
REMARK    1  A    between atoms: C4_4  and  C5_5
REMARK    2  A    between atoms: C5_5  and  O1_6
REMARK    3  A    between atoms: O1_6  and  C6_7
REMARK    4  A    between atoms: C7_10  and  C8_11
REMARK                            x       y       z     vdW  Elec       q    Type
REMARK                         _______ _______ _______ _____ _____    ______ ____
ROOT
ATOM      1  C6  T17     1      96.590 119.292 140.247  0.00  0.00    +0.237 A 
ATOM      2  N1  T17     1      95.265 119.574 140.157  0.00  0.00    -0.125 NA
ATOM      3  N2  T17     1      94.822 120.206 139.040  0.00  0.00    -0.189 N 
ATOM      4  C7  T17     1      93.582 120.663 138.647  0.00  0.00    +0.187 A 
ATOM      5  N4  T17     1      93.734 121.286 137.473  0.00  0.00    -0.127 NA
ATOM      6  N5  T17     1      94.947 121.237 137.107  0.00  0.00    -0.127 NA
ATOM      7  C13 T17     1      95.620 120.604 138.016  0.00  0.00    +0.182 A 
ATOM      8  C14 T17     1      96.994 120.337 138.080  0.00  0.00    +0.010 A 
ATOM      9  C15 T17     1      97.481 119.662 139.212  0.00  0.00    +0.026 A 
ATOM     10  C16 T17     1      98.990 119.426 139.184  0.00  0.00    +0.025 C 
ATOM     11  C17 T17     1      99.663 120.823 139.047  0.00  0.00    +0.009 C 
ATOM     12  C18 T17     1      99.113 121.578 137.792  0.00  0.00    +0.009 C 
ATOM     13  C19 T17     1      98.058 120.707 137.051  0.00  0.00    +0.023 C 
ATOM     14  C20 T17     1      98.753 119.381 136.630  0.00  0.00    +0.009 C 
ATOM     15  C21 T17     1      99.300 118.626 137.886  0.00  0.00    +0.009 C 
ENDROOT
BRANCH   4  16
ATOM     16  C8  T17     1      92.310 120.534 139.368  0.00  0.00    +0.039 A 
ATOM     17  C9  T17     1      91.606 119.314 139.361  0.00  0.00    +0.014 A 
ATOM     18  C10 T17     1      90.395 119.219 140.066  0.00  0.00    +0.020 A 
ATOM     19  C11 T17     1      89.927 120.347 140.762  0.00  0.00    +0.111 A 
ATOM     20  N3  T17     1      90.595 121.515 140.784  0.00  0.00    -0.263 NA
ATOM     21  C12 T17     1      91.757 121.604 140.104  0.00  0.00    +0.122 A 
ENDBRANCH   4  16
BRANCH   1  22
ATOM     22  O1  T17     1      97.097 118.644 141.352  0.00  0.00    -0.469 OA
BRANCH  22  23
ATOM     23  C5  T17     1      97.300 119.325 142.608  0.00  0.00    +0.286 C 
BRANCH  23  27
ATOM     24  C1  T17     1      93.856 118.967 145.125  0.00  0.00    +0.020 A 
ATOM     25  C2  T17     1      94.661 117.830 144.957  0.00  0.00    +0.003 A 
ATOM     26  C3  T17     1      95.795 117.925 144.133  0.00  0.00    +0.027 A 
ATOM     27  C4  T17     1      96.080 119.153 143.503  0.00  0.00    +0.079 A 
ATOM     28  N6  T17     1      95.307 120.248 143.672  0.00  0.00    -0.256 NA
ATOM     29  C22 T17     1      94.220 120.154 144.464  0.00  0.00    +0.111 A 
ENDBRANCH  23  27
ENDBRANCH  22  23
ENDBRANCH   1  22
TORSDOF 4
ENDMDL
MODEL 7
REMARK VINA RESULT:    -7.361      5.422      9.068
REMARK INTER + INTRA:         -10.433
REMARK INTER:                  -9.753
REMARK INTRA:                  -0.680
REMARK UNBOUND:                -1.351
REMARK  Name = ligands_pdb/TRN_CHEMBL361105.pdb
REMARK  4 active torsions:
REMARK  status: ('A' for Active; 'I' for Inactive)
REMARK    1  A    between atoms: C4_4  and  C5_5
REMARK    2  A    between atoms: C5_5  and  O1_6
REMARK    3  A    between atoms: O1_6  and  C6_7
REMARK    4  A    between atoms: C7_10  and  C8_11
REMARK                            x       y       z     vdW  Elec       q    Type
REMARK                         _______ _______ _______ _____ _____    ______ ____
ROOT
ATOM      1  C6  T17     1      95.368 121.889 137.734  0.00  0.00    +0.237 A 
ATOM      2  N1  T17     1      95.390 123.234 137.551  0.00  0.00    -0.125 NA
ATOM      3  N2  T17     1      96.599 123.849 137.492  0.00  0.00    -0.189 N 
ATOM      4  C7  T17     1      96.978 125.168 137.355  0.00  0.00    +0.187 A 
ATOM      5  N4  T17     1      98.313 125.216 137.437  0.00  0.00    -0.127 NA
ATOM      6  N5  T17     1      98.782 124.049 137.595  0.00  0.00    -0.127 NA
ATOM      7  C13 T17     1      97.791 123.215 137.633  0.00  0.00    +0.182 A 
ATOM      8  C14 T17     1      97.804 121.828 137.832  0.00  0.00    +0.010 A 
ATOM      9  C15 T17     1      96.570 121.157 137.874  0.00  0.00    +0.026 A 
ATOM     10  C16 T17     1      96.697 119.652 138.101  0.00  0.00    +0.025 C 
ATOM     11  C17 T17     1      97.470 119.460 139.439  0.00  0.00    +0.009 C 
ATOM     12  C18 T17     1      98.840 120.215 139.394  0.00  0.00    +0.009 C 
ATOM     13  C19 T17     1      99.024 120.932 138.026  0.00  0.00    +0.023 C 
ATOM     14  C20 T17     1      98.962 119.846 136.913  0.00  0.00    +0.009 C 
ATOM     15  C21 T17     1      97.592 119.094 136.956  0.00  0.00    +0.009 C 
ENDROOT
BRANCH   4  16
ATOM     16  C8  T17     1      96.107 126.336 137.177  0.00  0.00    +0.039 A 
ATOM     17  C9  T17     1      95.599 126.661 135.904  0.00  0.00    +0.014 A 
ATOM     18  C10 T17     1      94.763 127.781 135.767  0.00  0.00    +0.020 A 
ATOM     19  C11 T17     1      94.455 128.540 136.909  0.00  0.00    +0.111 A 
ATOM     20  N3  T17     1      94.926 128.234 138.133  0.00  0.00    -0.263 NA
ATOM     21  C12 T17     1      95.731 127.159 138.261  0.00  0.00    +0.122 A 
ENDBRANCH   4  16
BRANCH   1  22
ATOM     22  O1  T17     1      94.171 121.208 137.793  0.00  0.00    -0.469 OA
BRANCH  22  23
ATOM     23  C5  T17     1      93.196 121.469 138.824  0.00  0.00    +0.286 C 
BRANCH  23  27
ATOM     24  C1  T17     1      89.865 118.807 138.447  0.00  0.00    +0.020 A 
ATOM     25  C2  T17     1      90.902 118.434 139.316  0.00  0.00    +0.003 A 
ATOM     26  C3  T17     1      92.005 119.292 139.453  0.00  0.00    +0.027 A 
ATOM     27  C4  T17     1      92.035 120.491 138.711  0.00  0.00    +0.079 A 
ATOM     28  N6  T17     1      91.032 120.850 137.880  0.00  0.00    -0.256 NA
ATOM     29  C22 T17     1      89.973 120.025 137.752  0.00  0.00    +0.111 A 
ENDBRANCH  23  27
ENDBRANCH  22  23
ENDBRANCH   1  22
TORSDOF 4
ENDMDL
MODEL 8
REMARK VINA RESULT:    -7.309      4.019      6.506
REMARK INTER + INTRA:         -10.369
REMARK INTER:                  -9.713
REMARK INTRA:                  -0.656
REMARK UNBOUND:                -1.351
REMARK  Name = ligands_pdb/TRN_CHEMBL361105.pdb
REMARK  4 active torsions:
REMARK  status: ('A' for Active; 'I' for Inactive)
REMARK    1  A    between atoms: C4_4  and  C5_5
REMARK    2  A    between atoms: C5_5  and  O1_6
REMARK    3  A    between atoms: O1_6  and  C6_7
REMARK    4  A    between atoms: C7_10  and  C8_11
REMARK                            x       y       z     vdW  Elec       q    Type
REMARK                         _______ _______ _______ _____ _____    ______ ____
ROOT
ATOM      1  C6  T17     1      95.815 121.501 138.484  0.00  0.00    +0.237 A 
ATOM      2  N1  T17     1      94.787 120.906 139.141  0.00  0.00    -0.125 NA
ATOM      3  N2  T17     1      94.952 119.625 139.557  0.00  0.00    -0.189 N 
ATOM      4  C7  T17     1      94.124 118.730 140.201  0.00  0.00    +0.187 A 
ATOM      5  N4  T17     1      94.780 117.568 140.297  0.00  0.00    -0.127 NA
ATOM      6  N5  T17     1      95.934 117.676 139.784  0.00  0.00    -0.127 NA
ATOM      7  C13 T17     1      96.068 118.883 139.334  0.00  0.00    +0.182 A 
ATOM      8  C14 T17     1      97.145 119.463 138.652  0.00  0.00    +0.010 A 
ATOM      9  C15 T17     1      97.015 120.798 138.229  0.00  0.00    +0.026 A 
ATOM     10  C16 T17     1      98.243 121.330 137.492  0.00  0.00    +0.025 C 
ATOM     11  C17 T17     1      98.481 120.390 136.273  0.00  0.00    +0.009 C 
ATOM     12  C18 T17     1      98.616 118.904 136.744  0.00  0.00    +0.009 C 
ATOM     13  C19 T17     1      98.474 118.806 138.291  0.00  0.00    +0.023 C 
ATOM     14  C20 T17     1      99.593 119.683 138.922  0.00  0.00    +0.009 C 
ATOM     15  C21 T17     1      99.455 121.169 138.454  0.00  0.00    +0.009 C 
ENDROOT
BRANCH   4  16
ATOM     16  C8  T17     1      92.759 118.964 140.687  0.00  0.00    +0.039 A 
ATOM     17  C9  T17     1      92.539 119.572 141.938  0.00  0.00    +0.014 A 
ATOM     18  C10 T17     1      91.221 119.788 142.372  0.00  0.00    +0.020 A 
ATOM     19  C11 T17     1      90.161 119.395 141.538  0.00  0.00    +0.111 A 
ATOM     20  N3  T17     1      90.357 118.821 140.336  0.00  0.00    -0.263 NA
ATOM     21  C12 T17     1      91.625 118.613 139.923  0.00  0.00    +0.122 A 
ENDBRANCH   4  16
BRANCH   1  22
ATOM     22  O1  T17     1      95.710 122.804 138.046  0.00  0.00    -0.469 OA
BRANCH  22  23
ATOM     23  C5  T17     1      95.286 123.124 136.705  0.00  0.00    +0.286 C 
BRANCH  23  27
ATOM     24  C1  T17     1      95.180 127.350 136.030  0.00  0.00    +0.020 A 
ATOM     25  C2  T17     1      95.946 126.882 137.109  0.00  0.00    +0.003 A 
ATOM     26  C3  T17     1      95.993 125.498 137.349  0.00  0.00    +0.027 A 
ATOM     27  C4  T17     1      95.267 124.633 136.505  0.00  0.00    +0.079 A 
ATOM     28  N6  T17     1      94.536 125.088 135.464  0.00  0.00    -0.256 NA
ATOM     29  C22 T17     1      94.494 126.415 135.235  0.00  0.00    +0.111 A 
ENDBRANCH  23  27
ENDBRANCH  22  23
ENDBRANCH   1  22
TORSDOF 4
ENDMDL
MODEL 9
REMARK VINA RESULT:    -7.192      1.989      6.673
REMARK INTER + INTRA:         -10.224
REMARK INTER:                  -9.637
REMARK INTRA:                  -0.587
REMARK UNBOUND:                -1.351
REMARK  Name = ligands_pdb/TRN_CHEMBL361105.pdb
REMARK  4 active torsions:
REMARK  status: ('A' for Active; 'I' for Inactive)
REMARK    1  A    between atoms: C4_4  and  C5_5
REMARK    2  A    between atoms: C5_5  and  O1_6
REMARK    3  A    between atoms: O1_6  and  C6_7
REMARK    4  A    between atoms: C7_10  and  C8_11
REMARK                            x       y       z     vdW  Elec       q    Type
REMARK                         _______ _______ _______ _____ _____    ______ ____
ROOT
ATOM      1  C6  T17     1      94.238 118.942 143.002  0.00  0.00    +0.237 A 
ATOM      2  N1  T17     1      95.170 119.206 142.051  0.00  0.00    -0.125 NA
ATOM      3  N2  T17     1      94.741 119.665 140.848  0.00  0.00    -0.189 N 
ATOM      4  C7  T17     1      95.394 119.990 139.678  0.00  0.00    +0.187 A 
ATOM      5  N4  T17     1      94.463 120.318 138.773  0.00  0.00    -0.127 NA
ATOM      6  N5  T17     1      93.307 120.237 139.288  0.00  0.00    -0.127 NA
ATOM      7  C13 T17     1      93.437 119.850 140.518  0.00  0.00    +0.182 A 
ATOM      8  C14 T17     1      92.447 119.578 141.472  0.00  0.00    +0.010 A 
ATOM      9  C15 T17     1      92.860 119.125 142.737  0.00  0.00    +0.026 A 
ATOM     10  C16 T17     1      91.705 118.854 143.699  0.00  0.00    +0.025 C 
ATOM     11  C17 T17     1      90.784 117.803 143.014  0.00  0.00    +0.009 C 
ATOM     12  C18 T17     1      90.332 118.304 141.602  0.00  0.00    +0.009 C 
ATOM     13  C19 T17     1      90.937 119.706 141.302  0.00  0.00    +0.023 C 
ATOM     14  C20 T17     1      90.443 120.679 142.411  0.00  0.00    +0.009 C 
ATOM     15  C21 T17     1      90.897 120.179 143.822  0.00  0.00    +0.009 C 
ENDROOT
BRANCH   4  16
ATOM     16  C8  T17     1      96.839 119.970 139.423  0.00  0.00    +0.039 A 
ATOM     17  C9  T17     1      97.479 118.778 139.033  0.00  0.00    +0.014 A 
ATOM     18  C10 T17     1      98.862 118.793 138.789  0.00  0.00    +0.020 A 
ATOM     19  C11 T17     1      99.563 120.001 138.937  0.00  0.00    +0.111 A 
ATOM     20  N3  T17     1      98.961 121.150 139.300  0.00  0.00    -0.263 NA
ATOM     21  C12 T17     1      97.632 121.132 139.536  0.00  0.00    +0.122 A 
ENDBRANCH   4  16
BRANCH   1  22
ATOM     22  O1  T17     1      94.613 118.483 144.246  0.00  0.00    -0.469 OA
BRANCH  22  23
ATOM     23  C5  T17     1      94.695 119.360 145.388  0.00  0.00    +0.286 C 
BRANCH  23  27
ATOM     24  C1  T17     1      96.405 117.193 148.661  0.00  0.00    +0.020 A 
ATOM     25  C2  T17     1      96.231 118.577 148.816  0.00  0.00    +0.003 A 
ATOM     26  C3  T17     1      95.673 119.307 147.753  0.00  0.00    +0.027 A 
ATOM     27  C4  T17     1      95.315 118.628 146.571  0.00  0.00    +0.079 A 
ATOM     28  N6  T17     1      95.478 117.294 146.428  0.00  0.00    -0.256 NA
ATOM     29  C22 T17     1      96.012 116.596 147.450  0.00  0.00    +0.111 A 
ENDBRANCH  23  27
ENDBRANCH  22  23
ENDBRANCH   1  22
TORSDOF 4
ENDMDL
MODEL 10
REMARK VINA RESULT:    -7.151      2.703      7.298
REMARK INTER + INTRA:         -10.174
REMARK INTER:                  -8.996
REMARK INTRA:                  -1.178
REMARK UNBOUND:                -1.351
REMARK  Name = ligands_pdb/TRN_CHEMBL361105.pdb
REMARK  4 active torsions:
REMARK  status: ('A' for Active; 'I' for Inactive)
REMARK    1  A    between atoms: C4_4  and  C5_5
REMARK    2  A    between atoms: C5_5  and  O1_6
REMARK    3  A    between atoms: O1_6  and  C6_7
REMARK    4  A    between atoms: C7_10  and  C8_11
REMARK                            x       y       z     vdW  Elec       q    Type
REMARK                         _______ _______ _______ _____ _____    ______ ____
ROOT
ATOM      1  C6  T17     1      94.337 121.017 141.811  0.00  0.00    +0.237 A 
ATOM      2  N1  T17     1      95.236 121.179 140.807  0.00  0.00    -0.125 NA
ATOM      3  N2  T17     1      96.344 120.395 140.811  0.00  0.00    -0.189 N 
ATOM      4  C7  T17     1      97.447 120.321 139.987  0.00  0.00    +0.187 A 
ATOM      5  N4  T17     1      98.280 119.412 140.507  0.00  0.00    -0.127 NA
ATOM      6  N5  T17     1      97.780 118.915 141.561  0.00  0.00    -0.127 NA
ATOM      7  C13 T17     1      96.632 119.478 141.770  0.00  0.00    +0.182 A 
ATOM      8  C14 T17     1      95.731 119.292 142.827  0.00  0.00    +0.010 A 
ATOM      9  C15 T17     1      94.561 120.071 142.838  0.00  0.00    +0.026 A 
ATOM     10  C16 T17     1      93.651 119.794 144.033  0.00  0.00    +0.025 C 
ATOM     11  C17 T17     1      94.496 120.055 145.315  0.00  0.00    +0.009 C 
ATOM     12  C18 T17     1      95.803 119.195 145.296  0.00  0.00    +0.009 C 
ATOM     13  C19 T17     1      95.869 118.331 144.003  0.00  0.00    +0.023 C 
ATOM     14  C20 T17     1      94.612 117.415 143.983  0.00  0.00    +0.009 C 
ATOM     15  C21 T17     1      93.306 118.276 143.999  0.00  0.00    +0.009 C 
ENDROOT
BRANCH   4  16
ATOM     16  C8  T17     1      97.710 121.097 138.770  0.00  0.00    +0.039 A 
ATOM     17  C9  T17     1      98.106 122.447 138.853  0.00  0.00    +0.014 A 
ATOM     18  C10 T17     1      98.356 123.161 137.670  0.00  0.00    +0.020 A 
ATOM     19  C11 T17     1      98.210 122.502 136.438  0.00  0.00    +0.111 A 
ATOM     20  N3  T17     1      97.841 121.210 136.344  0.00  0.00    -0.263 NA
ATOM     21  C12 T17     1      97.599 120.527 137.483  0.00  0.00    +0.122 A 
ENDBRANCH   4  16
BRANCH   1  22
ATOM     22  O1  T17     1      93.188 121.778 141.855  0.00  0.00    -0.469 OA
BRANCH  22  23
ATOM     23  C5  T17     1      92.021 121.439 141.079  0.00  0.00    +0.286 C 
BRANCH  23  27
ATOM     24  C1  T17     1      89.146 119.317 143.436  0.00  0.00    +0.020 A 
ATOM     25  C2  T17     1      89.471 120.626 143.828  0.00  0.00    +0.003 A 
ATOM     26  C3  T17     1      90.414 121.338 143.069  0.00  0.00    +0.027 A 
ATOM     27  C4  T17     1      91.002 120.715 141.949  0.00  0.00    +0.079 A 
ATOM     28  N6  T17     1      90.681 119.458 141.572  0.00  0.00    -0.256 NA
ATOM     29  C22 T17     1      89.775 118.777 142.301  0.00  0.00    +0.111 A 
ENDBRANCH  23  27
ENDBRANCH  22  23
ENDBRANCH   1  22
TORSDOF 4
ENDMDL
