MODEL 1
REMARK VINA RESULT:   -10.984      0.000      0.000
REMARK INTER + INTRA:         -13.041
REMARK INTER:                 -13.552
REMARK INTRA:                   0.511
REMARK UNBOUND:                 0.511
REMARK  Name = ligands_pdb/TRN_CHEMBL50581.pdb
REMARK  4 active torsions:
REMARK  status: ('A' for Active; 'I' for Inactive)
REMARK    1  A    between atoms: C4_4  and  C5_5
REMARK    2  A    between atoms: C5_5  and  O1_6
REMARK    3  A    between atoms: O1_6  and  C6_7
REMARK    4  A    between atoms: C7_10  and  C8_11
REMARK                            x       y       z     vdW  Elec       q    Type
REMARK                         _______ _______ _______ _____ _____    ______ ____
ROOT
ATOM      1  C6  T20     1      94.354 113.416 146.898  0.00  0.00    +0.241 A 
ATOM      2  N1  T20     1      94.943 114.521 147.412  0.00  0.00    -0.125 NA
ATOM      3  N2  T20     1      95.990 114.336 148.248  0.00  0.00    -0.189 N 
ATOM      4  C7  T20     1      96.794 115.186 148.963  0.00  0.00    +0.185 A 
ATOM      5  N3  T20     1      97.702 114.478 149.735  0.00  0.00    -0.127 NA
ATOM      6  N4  T20     1      97.509 113.193 149.531  0.00  0.00    -0.127 NA
ATOM      7  C14 T20     1      96.486 113.135 148.648  0.00  0.00    +0.186 A 
ATOM      8  C15 T20     1      95.894 111.966 148.129  0.00  0.00    +0.033 A 
ATOM      9  C16 T20     1      96.351 110.681 148.481  0.00  0.00    +0.012 A 
ATOM     10  C17 T20     1      95.731 109.542 147.941  0.00  0.00    +0.001 A 
ATOM     11  C18 T20     1      94.655 109.682 147.051  0.00  0.00    +0.001 A 
ATOM     12  C19 T20     1      94.193 110.960 146.697  0.00  0.00    +0.014 A 
ATOM     13  C20 T20     1      94.806 112.112 147.232  0.00  0.00    +0.049 A 
ENDROOT
BRANCH   4  14
ATOM     14  C8  T20     1      96.744 116.654 148.969  0.00  0.00    +0.021 A 
ATOM     15  C9  T20     1      97.168 117.370 150.108  0.00  0.00    +0.011 A 
ATOM     16  C10 T20     1      97.127 118.775 150.126  0.00  0.00    +0.001 A 
ATOM     17  C11 T20     1      96.667 119.479 149.004  0.00  0.00    +0.000 A 
ATOM     18  C12 T20     1      96.250 118.778 147.862  0.00  0.00    +0.001 A 
ATOM     19  C13 T20     1      96.290 117.374 147.845  0.00  0.00    +0.011 A 
ENDBRANCH   4  14
BRANCH   1  20
ATOM     20  O1  T20     1      93.287 113.552 146.030  0.00  0.00    -0.470 OA
BRANCH  20  21
ATOM     21  C5  T20     1      92.176 112.638 146.030  0.00  0.00    +0.266 C 
BRANCH  21  25
ATOM     22  C1  T20     1      89.122 114.167 143.359  0.00  0.00    +0.000 A 
ATOM     23  C2  T20     1      89.247 112.784 143.566  0.00  0.00    +0.000 A 
ATOM     24  C3  T20     1      90.236 112.289 144.431  0.00  0.00    +0.007 A 
ATOM     25  C4  T20     1      91.105 113.174 145.096  0.00  0.00    -0.010 A 
ATOM     26  C21 T20     1      90.977 114.559 144.883  0.00  0.00    +0.007 A 
ATOM     27  C22 T20     1      89.988 115.055 144.017  0.00  0.00    +0.000 A 
ENDBRANCH  21  25
ENDBRANCH  20  21
ENDBRANCH   1  20
TORSDOF 4
ENDMDL
MODEL 2
REMARK VINA RESULT:   -10.810      2.632      4.243
REMARK INTER + INTRA:         -12.827
REMARK INTER:                 -12.530
REMARK INTRA:                  -0.297
REMARK UNBOUND:                 0.511
REMARK  Name = ligands_pdb/TRN_CHEMBL50581.pdb
REMARK  4 active torsions:
REMARK  status: ('A' for Active; 'I' for Inactive)
REMARK    1  A    between atoms: C4_4  and  C5_5
REMARK    2  A    between atoms: C5_5  and  O1_6
REMARK    3  A    between atoms: O1_6  and  C6_7
REMARK    4  A    between atoms: C7_10  and  C8_11
REMARK                            x       y       z     vdW  Elec       q    Type
REMARK                         _______ _______ _______ _____ _____    ______ ____
ROOT
ATOM      1  C6  T20     1      95.411 114.732 146.998  0.00  0.00    +0.241 A 
ATOM      2  N1  T20     1      95.237 115.901 146.338  0.00  0.00    -0.125 NA
ATOM      3  N2  T20     1      95.728 117.020 146.916  0.00  0.00    -0.189 N 
ATOM      4  C7  T20     1      95.717 118.348 146.573  0.00  0.00    +0.185 A 
ATOM      5  N3  T20     1      96.316 119.120 147.557  0.00  0.00    -0.127 NA
ATOM      6  N4  T20     1      96.718 118.324 148.523  0.00  0.00    -0.127 NA
ATOM      7  C14 T20     1      96.355 117.084 148.121  0.00  0.00    +0.186 A 
ATOM      8  C15 T20     1      96.552 115.883 148.832  0.00  0.00    +0.033 A 
ATOM      9  C16 T20     1      97.201 115.854 150.081  0.00  0.00    +0.012 A 
ATOM     10  C17 T20     1      97.377 114.635 150.756  0.00  0.00    +0.001 A 
ATOM     11  C18 T20     1      96.904 113.443 150.187  0.00  0.00    +0.001 A 
ATOM     12  C19 T20     1      96.254 113.463 148.941  0.00  0.00    +0.014 A 
ATOM     13  C20 T20     1      96.071 114.681 148.254  0.00  0.00    +0.049 A 
ENDROOT
BRANCH   4  14
ATOM     14  C8  T20     1      95.152 118.941 145.354  0.00  0.00    +0.021 A 
ATOM     15  C9  T20     1      95.976 119.169 144.232  0.00  0.00    +0.011 A 
ATOM     16  C10 T20     1      95.448 119.734 143.058  0.00  0.00    +0.001 A 
ATOM     17  C11 T20     1      94.088 120.071 142.991  0.00  0.00    +0.000 A 
ATOM     18  C12 T20     1      93.256 119.840 144.098  0.00  0.00    +0.001 A 
ATOM     19  C13 T20     1      93.785 119.277 145.271  0.00  0.00    +0.011 A 
ENDBRANCH   4  14
BRANCH   1  20
ATOM     20  O1  T20     1      94.936 113.558 146.444  0.00  0.00    -0.470 OA
BRANCH  20  21
ATOM     21  C5  T20     1      93.782 112.874 146.965  0.00  0.00    +0.266 C 
BRANCH  21  25
ATOM     22  C1  T20     1      90.387 113.718 144.405  0.00  0.00    +0.000 A 
ATOM     23  C2  T20     1      91.259 114.753 144.779  0.00  0.00    +0.000 A 
ATOM     24  C3  T20     1      92.359 114.479 145.609  0.00  0.00    +0.007 A 
ATOM     25  C4  T20     1      92.594 113.169 146.066  0.00  0.00    -0.010 A 
ATOM     26  C21 T20     1      91.715 112.137 145.689  0.00  0.00    +0.007 A 
ATOM     27  C22 T20     1      90.615 112.410 144.860  0.00  0.00    +0.000 A 
ENDBRANCH  21  25
ENDBRANCH  20  21
ENDBRANCH   1  20
TORSDOF 4
ENDMDL
MODEL 3
REMARK VINA RESULT:   -10.683      2.738      6.675
REMARK INTER + INTRA:         -12.670
REMARK INTER:                 -12.075
REMARK INTRA:                  -0.596
REMARK UNBOUND:                 0.511
REMARK  Name = ligands_pdb/TRN_CHEMBL50581.pdb
REMARK  4 active torsions:
REMARK  status: ('A' for Active; 'I' for Inactive)
REMARK    1  A    between atoms: C4_4  and  C5_5
REMARK    2  A    between atoms: C5_5  and  O1_6
REMARK    3  A    between atoms: O1_6  and  C6_7
REMARK    4  A    between atoms: C7_10  and  C8_11
REMARK                            x       y       z     vdW  Elec       q    Type
REMARK                         _______ _______ _______ _____ _____    ______ ____
ROOT
ATOM      1  C6  T20     1      95.422 116.436 147.165  0.00  0.00    +0.241 A 
ATOM      2  N1  T20     1      95.346 115.088 147.267  0.00  0.00    -0.125 NA
ATOM      3  N2  T20     1      95.886 114.517 148.366  0.00  0.00    -0.189 N 
ATOM      4  C7  T20     1      96.024 113.219 148.791  0.00  0.00    +0.185 A 
ATOM      5  N3  T20     1      96.724 113.160 149.986  0.00  0.00    -0.127 NA
ATOM      6  N4  T20     1      97.037 114.385 150.346  0.00  0.00    -0.127 NA
ATOM      7  C14 T20     1      96.532 115.172 149.368  0.00  0.00    +0.186 A 
ATOM      8  C15 T20     1      96.626 116.576 149.291  0.00  0.00    +0.033 A 
ATOM      9  C16 T20     1      97.268 117.335 150.288  0.00  0.00    +0.012 A 
ATOM     10  C17 T20     1      97.340 118.733 150.172  0.00  0.00    +0.001 A 
ATOM     11  C18 T20     1      96.774 119.375 149.059  0.00  0.00    +0.001 A 
ATOM     12  C19 T20     1      96.134 118.625 148.059  0.00  0.00    +0.014 A 
ATOM     13  C20 T20     1      96.055 117.220 148.164  0.00  0.00    +0.049 A 
ENDROOT
BRANCH   4  14
ATOM     14  C8  T20     1      95.534 112.012 148.114  0.00  0.00    +0.021 A 
ATOM     15  C9  T20     1      96.090 110.754 148.424  0.00  0.00    +0.011 A 
ATOM     16  C10 T20     1      95.630 109.590 147.785  0.00  0.00    +0.001 A 
ATOM     17  C11 T20     1      94.603 109.670 146.832  0.00  0.00    +0.000 A 
ATOM     18  C12 T20     1      94.036 110.916 146.522  0.00  0.00    +0.001 A 
ATOM     19  C13 T20     1      94.497 112.079 147.160  0.00  0.00    +0.011 A 
ENDBRANCH   4  14
BRANCH   1  20
ATOM     20  O1  T20     1      94.875 117.069 146.065  0.00  0.00    -0.470 OA
BRANCH  20  21
ATOM     21  C5  T20     1      95.524 117.075 144.780  0.00  0.00    +0.266 C 
BRANCH  21  25
ATOM     22  C1  T20     1      95.190 121.045 143.070  0.00  0.00    +0.000 A 
ATOM     23  C2  T20     1      94.279 120.624 144.052  0.00  0.00    +0.000 A 
ATOM     24  C3  T20     1      94.388 119.338 144.606  0.00  0.00    +0.007 A 
ATOM     25  C4  T20     1      95.409 118.467 144.183  0.00  0.00    -0.010 A 
ATOM     26  C21 T20     1      96.317 118.893 143.196  0.00  0.00    +0.007 A 
ATOM     27  C22 T20     1      96.209 120.179 142.642  0.00  0.00    +0.000 A 
ENDBRANCH  21  25
ENDBRANCH  20  21
ENDBRANCH   1  20
TORSDOF 4
ENDMDL
MODEL 4
REMARK VINA RESULT:   -10.298      5.363      9.384
REMARK INTER + INTRA:         -12.195
REMARK INTER:                 -11.507
REMARK INTRA:                  -0.688
REMARK UNBOUND:                 0.511
REMARK  Name = ligands_pdb/TRN_CHEMBL50581.pdb
REMARK  4 active torsions:
REMARK  status: ('A' for Active; 'I' for Inactive)
REMARK    1  A    between atoms: C4_4  and  C5_5
REMARK    2  A    between atoms: C5_5  and  O1_6
REMARK    3  A    between atoms: O1_6  and  C6_7
REMARK    4  A    between atoms: C7_10  and  C8_11
REMARK                            x       y       z     vdW  Elec       q    Type
REMARK                         _______ _______ _______ _____ _____    ______ ____
ROOT
ATOM      1  C6  T20     1      94.545 119.213 145.040  0.00  0.00    +0.241 A 
ATOM      2  N1  T20     1      93.326 119.681 144.686  0.00  0.00    -0.125 NA
ATOM      3  N2  T20     1      93.218 120.283 143.480  0.00  0.00    -0.189 N 
ATOM      4  C7  T20     1      92.184 120.889 142.811  0.00  0.00    +0.185 A 
ATOM      5  N3  T20     1      92.616 121.417 141.604  0.00  0.00    -0.127 NA
ATOM      6  N4  T20     1      93.900 121.162 141.474  0.00  0.00    -0.127 NA
ATOM      7  C14 T20     1      94.234 120.491 142.600  0.00  0.00    +0.186 A 
ATOM      8  C15 T20     1      95.515 120.014 142.941  0.00  0.00    +0.033 A 
ATOM      9  C16 T20     1      96.622 120.176 142.085  0.00  0.00    +0.012 A 
ATOM     10  C17 T20     1      97.882 119.685 142.464  0.00  0.00    +0.001 A 
ATOM     11  C18 T20     1      98.041 119.033 143.697  0.00  0.00    +0.001 A 
ATOM     12  C19 T20     1      96.942 118.869 144.557  0.00  0.00    +0.014 A 
ATOM     13  C20 T20     1      95.671 119.357 144.188  0.00  0.00    +0.049 A 
ENDROOT
BRANCH   4  14
ATOM     14  C8  T20     1      90.792 121.012 143.261  0.00  0.00    +0.021 A 
ATOM     15  C9  T20     1      90.200 122.285 143.388  0.00  0.00    +0.011 A 
ATOM     16  C10 T20     1      88.868 122.417 143.816  0.00  0.00    +0.001 A 
ATOM     17  C11 T20     1      88.110 121.275 144.116  0.00  0.00    +0.000 A 
ATOM     18  C12 T20     1      88.686 120.001 143.986  0.00  0.00    +0.001 A 
ATOM     19  C13 T20     1      90.018 119.871 143.560  0.00  0.00    +0.011 A 
ENDBRANCH   4  14
BRANCH   1  20
ATOM     20  O1  T20     1      94.706 118.580 146.258  0.00  0.00    -0.470 OA
BRANCH  20  21
ATOM     21  C5  T20     1      95.159 119.278 147.432  0.00  0.00    +0.266 C 
BRANCH  21  25
ATOM     22  C1  T20     1      97.534 116.560 149.834  0.00  0.00    +0.000 A 
ATOM     23  C2  T20     1      96.813 116.076 148.731  0.00  0.00    +0.000 A 
ATOM     24  C3  T20     1      96.043 116.957 147.953  0.00  0.00    +0.007 A 
ATOM     25  C4  T20     1      95.993 118.326 148.273  0.00  0.00    -0.010 A 
ATOM     26  C21 T20     1      96.716 118.805 149.381  0.00  0.00    +0.007 A 
ATOM     27  C22 T20     1      97.486 117.925 150.159  0.00  0.00    +0.000 A 
ENDBRANCH  21  25
ENDBRANCH  20  21
ENDBRANCH   1  20
TORSDOF 4
ENDMDL
MODEL 5
REMARK VINA RESULT:    -9.784      6.112      8.714
REMARK INTER + INTRA:         -11.560
REMARK INTER:                 -10.629
REMARK INTRA:                  -0.931
REMARK UNBOUND:                 0.511
REMARK  Name = ligands_pdb/TRN_CHEMBL50581.pdb
REMARK  4 active torsions:
REMARK  status: ('A' for Active; 'I' for Inactive)
REMARK    1  A    between atoms: C4_4  and  C5_5
REMARK    2  A    between atoms: C5_5  and  O1_6
REMARK    3  A    between atoms: O1_6  and  C6_7
REMARK    4  A    between atoms: C7_10  and  C8_11
REMARK                            x       y       z     vdW  Elec       q    Type
REMARK                         _______ _______ _______ _____ _____    ______ ____
ROOT
ATOM      1  C6  T20     1      96.207 118.748 142.844  0.00  0.00    +0.241 A 
ATOM      2  N1  T20     1      96.249 118.625 144.192  0.00  0.00    -0.125 NA
ATOM      3  N2  T20     1      95.076 118.712 144.860  0.00  0.00    -0.189 N 
ATOM      4  C7  T20     1      94.736 118.669 146.188  0.00  0.00    +0.185 A 
ATOM      5  N3  T20     1      93.375 118.874 146.359  0.00  0.00    -0.127 NA
ATOM      6  N4  T20     1      92.828 119.043 145.175  0.00  0.00    -0.127 NA
ATOM      7  C14 T20     1      93.858 118.945 144.303  0.00  0.00    +0.186 A 
ATOM      8  C15 T20     1      93.783 119.076 142.901  0.00  0.00    +0.033 A 
ATOM      9  C16 T20     1      92.562 119.308 142.239  0.00  0.00    +0.012 A 
ATOM     10  C17 T20     1      92.532 119.433 140.841  0.00  0.00    +0.001 A 
ATOM     11  C18 T20     1      93.719 119.328 140.100  0.00  0.00    +0.001 A 
ATOM     12  C19 T20     1      94.942 119.098 140.753  0.00  0.00    +0.014 A 
ATOM     13  C20 T20     1      94.986 118.972 142.158  0.00  0.00    +0.049 A 
ENDROOT
BRANCH   4  14
ATOM     14  C8  T20     1      95.640 118.454 147.325  0.00  0.00    +0.021 A 
ATOM     15  C9  T20     1      95.794 119.457 148.305  0.00  0.00    +0.011 A 
ATOM     16  C10 T20     1      96.654 119.264 149.399  0.00  0.00    +0.001 A 
ATOM     17  C11 T20     1      97.366 118.062 149.529  0.00  0.00    +0.000 A 
ATOM     18  C12 T20     1      97.215 117.053 148.565  0.00  0.00    +0.001 A 
ATOM     19  C13 T20     1      96.356 117.248 147.471  0.00  0.00    +0.011 A 
ENDBRANCH   4  14
BRANCH   1  20
ATOM     20  O1  T20     1      97.377 118.655 142.115  0.00  0.00    -0.470 OA
BRANCH  20  21
ATOM     21  C5  T20     1      98.222 119.794 141.870  0.00  0.00    +0.266 C 
BRANCH  21  25
ATOM     22  C1  T20     1      98.400 120.499 137.596  0.00  0.00    +0.000 A 
ATOM     23  C2  T20     1      98.217 121.575 138.479  0.00  0.00    +0.000 A 
ATOM     24  C3  T20     1      98.160 121.347 139.864  0.00  0.00    +0.007 A 
ATOM     25  C4  T20     1      98.287 120.041 140.373  0.00  0.00    -0.010 A 
ATOM     26  C21 T20     1      98.467 118.966 139.483  0.00  0.00    +0.007 A 
ATOM     27  C22 T20     1      98.524 119.194 138.099  0.00  0.00    +0.000 A 
ENDBRANCH  21  25
ENDBRANCH  20  21
ENDBRANCH   1  20
TORSDOF 4
ENDMDL
MODEL 6
REMARK VINA RESULT:    -9.447      6.908      9.578
REMARK INTER + INTRA:         -11.145
REMARK INTER:                  -9.984
REMARK INTRA:                  -1.161
REMARK UNBOUND:                 0.511
REMARK  Name = ligands_pdb/TRN_CHEMBL50581.pdb
REMARK  4 active torsions:
REMARK  status: ('A' for Active; 'I' for Inactive)
REMARK    1  A    between atoms: C4_4  and  C5_5
REMARK    2  A    between atoms: C5_5  and  O1_6
REMARK    3  A    between atoms: O1_6  and  C6_7
REMARK    4  A    between atoms: C7_10  and  C8_11
REMARK                            x       y       z     vdW  Elec       q    Type
REMARK                         _______ _______ _______ _____ _____    ______ ____
ROOT
ATOM      1  C6  T20     1      95.530 120.631 141.744  0.00  0.00    +0.241 A 
ATOM      2  N1  T20     1      95.585 120.171 143.016  0.00  0.00    -0.125 NA
ATOM      3  N2  T20     1      94.632 119.293 143.401  0.00  0.00    -0.189 N 
ATOM      4  C7  T20     1      94.352 118.653 144.582  0.00  0.00    +0.185 A 
ATOM      5  N3  T20     1      93.202 117.887 144.471  0.00  0.00    -0.127 NA
ATOM      6  N4  T20     1      92.736 118.010 143.248  0.00  0.00    -0.127 NA
ATOM      7  C14 T20     1      93.600 118.852 142.634  0.00  0.00    +0.186 A 
ATOM      8  C15 T20     1      93.517 119.311 141.304  0.00  0.00    +0.033 A 
ATOM      9  C16 T20     1      92.488 118.898 140.436  0.00  0.00    +0.012 A 
ATOM     10  C17 T20     1      92.443 119.381 139.118  0.00  0.00    +0.001 A 
ATOM     11  C18 T20     1      93.422 120.278 138.664  0.00  0.00    +0.001 A 
ATOM     12  C19 T20     1      94.451 120.697 139.524  0.00  0.00    +0.014 A 
ATOM     13  C20 T20     1      94.507 120.219 140.851  0.00  0.00    +0.049 A 
ENDROOT
BRANCH   4  14
ATOM     14  C8  T20     1      95.115 118.737 145.834  0.00  0.00    +0.021 A 
ATOM     15  C9  T20     1      94.480 119.157 147.021  0.00  0.00    +0.011 A 
ATOM     16  C10 T20     1      95.197 119.240 148.227  0.00  0.00    +0.001 A 
ATOM     17  C11 T20     1      96.557 118.898 148.260  0.00  0.00    +0.000 A 
ATOM     18  C12 T20     1      97.198 118.470 147.086  0.00  0.00    +0.001 A 
ATOM     19  C13 T20     1      96.481 118.390 145.882  0.00  0.00    +0.011 A 
ENDBRANCH   4  14
BRANCH   1  20
ATOM     20  O1  T20     1      96.488 121.522 141.299  0.00  0.00    -0.470 OA
BRANCH  20  21
ATOM     21  C5  T20     1      97.878 121.167 141.194  0.00  0.00    +0.266 C 
BRANCH  21  25
ATOM     22  C1  T20     1      98.613 119.611 137.215  0.00  0.00    +0.000 A 
ATOM     23  C2  T20     1      98.271 120.962 137.389  0.00  0.00    +0.000 A 
ATOM     24  C3  T20     1      98.034 121.465 138.678  0.00  0.00    +0.007 A 
ATOM     25  C4  T20     1      98.138 120.622 139.800  0.00  0.00    -0.010 A 
ATOM     26  C21 T20     1      98.478 119.269 139.619  0.00  0.00    +0.007 A 
ATOM     27  C22 T20     1      98.716 118.765 138.330  0.00  0.00    +0.000 A 
ENDBRANCH  21  25
ENDBRANCH  20  21
ENDBRANCH   1  20
TORSDOF 4
ENDMDL
MODEL 7
REMARK VINA RESULT:    -9.283      4.940      9.395
REMARK INTER + INTRA:         -10.943
REMARK INTER:                 -10.241
REMARK INTRA:                  -0.701
REMARK UNBOUND:                 0.511
REMARK  Name = ligands_pdb/TRN_CHEMBL50581.pdb
REMARK  4 active torsions:
REMARK  status: ('A' for Active; 'I' for Inactive)
REMARK    1  A    between atoms: C4_4  and  C5_5
REMARK    2  A    between atoms: C5_5  and  O1_6
REMARK    3  A    between atoms: O1_6  and  C6_7
REMARK    4  A    between atoms: C7_10  and  C8_11
REMARK                            x       y       z     vdW  Elec       q    Type
REMARK                         _______ _______ _______ _____ _____    ______ ____
ROOT
ATOM      1  C6  T20     1      94.869 118.664 144.463  0.00  0.00    +0.241 A 
ATOM      2  N1  T20     1      93.560 118.799 144.144  0.00  0.00    -0.125 NA
ATOM      3  N2  T20     1      93.267 119.283 142.916  0.00  0.00    -0.189 N 
ATOM      4  C7  T20     1      92.094 119.579 142.268  0.00  0.00    +0.185 A 
ATOM      5  N3  T20     1      92.342 120.123 141.017  0.00  0.00    -0.127 NA
ATOM      6  N4  T20     1      93.643 120.181 140.839  0.00  0.00    -0.127 NA
ATOM      7  C14 T20     1      94.170 119.680 141.980  0.00  0.00    +0.186 A 
ATOM      8  C15 T20     1      95.540 119.550 142.283  0.00  0.00    +0.033 A 
ATOM      9  C16 T20     1      96.544 119.926 141.369  0.00  0.00    +0.012 A 
ATOM     10  C17 T20     1      97.898 119.780 141.711  0.00  0.00    +0.001 A 
ATOM     11  C18 T20     1      98.254 119.261 142.966  0.00  0.00    +0.001 A 
ATOM     12  C19 T20     1      97.259 118.886 143.884  0.00  0.00    +0.014 A 
ATOM     13  C20 T20     1      95.895 119.027 143.552  0.00  0.00    +0.049 A 
ENDROOT
BRANCH   4  14
ATOM     14  C8  T20     1      90.730 119.385 142.777  0.00  0.00    +0.021 A 
ATOM     15  C9  T20     1      90.080 118.146 142.602  0.00  0.00    +0.011 A 
ATOM     16  C10 T20     1      88.776 117.947 143.086  0.00  0.00    +0.001 A 
ATOM     17  C11 T20     1      88.109 118.982 143.757  0.00  0.00    +0.000 A 
ATOM     18  C12 T20     1      88.750 120.217 143.946  0.00  0.00    +0.001 A 
ATOM     19  C13 T20     1      90.052 120.416 143.460  0.00  0.00    +0.011 A 
ENDBRANCH   4  14
BRANCH   1  20
ATOM     20  O1  T20     1      95.221 118.163 145.702  0.00  0.00    -0.470 OA
BRANCH  20  21
ATOM     21  C5  T20     1      95.261 118.987 146.881  0.00  0.00    +0.266 C 
BRANCH  21  25
ATOM     22  C1  T20     1      97.459 116.887 149.971  0.00  0.00    +0.000 A 
ATOM     23  C2  T20     1      97.238 118.269 150.082  0.00  0.00    +0.000 A 
ATOM     24  C3  T20     1      96.525 118.949 149.080  0.00  0.00    +0.007 A 
ATOM     25  C4  T20     1      96.029 118.251 147.964  0.00  0.00    -0.010 A 
ATOM     26  C21 T20     1      96.256 116.866 147.857  0.00  0.00    +0.007 A 
ATOM     27  C22 T20     1      96.969 116.186 148.858  0.00  0.00    +0.000 A 
ENDBRANCH  21  25
ENDBRANCH  20  21
ENDBRANCH   1  20
TORSDOF 4
ENDMDL
MODEL 8
REMARK VINA RESULT:    -9.223      3.884      9.197
REMARK INTER + INTRA:         -10.868
REMARK INTER:                 -10.490
REMARK INTRA:                  -0.378
REMARK UNBOUND:                 0.511
REMARK  Name = ligands_pdb/TRN_CHEMBL50581.pdb
REMARK  4 active torsions:
REMARK  status: ('A' for Active; 'I' for Inactive)
REMARK    1  A    between atoms: C4_4  and  C5_5
REMARK    2  A    between atoms: C5_5  and  O1_6
REMARK    3  A    between atoms: O1_6  and  C6_7
REMARK    4  A    between atoms: C7_10  and  C8_11
REMARK                            x       y       z     vdW  Elec       q    Type
REMARK                         _______ _______ _______ _____ _____    ______ ____
ROOT
ATOM      1  C6  T20     1      93.815 118.361 144.996  0.00  0.00    +0.241 A 
ATOM      2  N1  T20     1      93.005 117.280 144.908  0.00  0.00    -0.125 NA
ATOM      3  N2  T20     1      92.025 117.312 143.977  0.00  0.00    -0.189 N 
ATOM      4  C7  T20     1      91.023 116.444 143.624  0.00  0.00    +0.185 A 
ATOM      5  N3  T20     1      90.225 116.986 142.628  0.00  0.00    -0.127 NA
ATOM      6  N4  T20     1      90.690 118.178 142.325  0.00  0.00    -0.127 NA
ATOM      7  C14 T20     1      91.756 118.350 143.141  0.00  0.00    +0.186 A 
ATOM      8  C15 T20     1      92.582 119.489 143.208  0.00  0.00    +0.033 A 
ATOM      9  C16 T20     1      92.382 120.605 142.373  0.00  0.00    +0.012 A 
ATOM     10  C17 T20     1      93.229 121.720 142.474  0.00  0.00    +0.001 A 
ATOM     11  C18 T20     1      94.276 121.726 143.409  0.00  0.00    +0.001 A 
ATOM     12  C19 T20     1      94.481 120.618 144.247  0.00  0.00    +0.014 A 
ATOM     13  C20 T20     1      93.637 119.491 144.156  0.00  0.00    +0.049 A 
ENDROOT
BRANCH   4  14
ATOM     14  C8  T20     1      90.764 115.115 144.194  0.00  0.00    +0.021 A 
ATOM     15  C9  T20     1      89.560 114.443 143.900  0.00  0.00    +0.011 A 
ATOM     16  C10 T20     1      89.301 113.170 144.436  0.00  0.00    +0.001 A 
ATOM     17  C11 T20     1      90.246 112.552 145.268  0.00  0.00    +0.000 A 
ATOM     18  C12 T20     1      91.452 113.208 145.561  0.00  0.00    +0.001 A 
ATOM     19  C13 T20     1      91.710 114.480 145.026  0.00  0.00    +0.011 A 
ENDBRANCH   4  14
BRANCH   1  20
ATOM     20  O1  T20     1      94.839 118.373 145.924  0.00  0.00    -0.470 OA
BRANCH  20  21
ATOM     21  C5  T20     1      95.532 117.175 146.319  0.00  0.00    +0.266 C 
BRANCH  21  25
ATOM     22  C1  T20     1      97.369 117.842 150.188  0.00  0.00    +0.000 A 
ATOM     23  C2  T20     1      97.354 116.554 149.631  0.00  0.00    +0.000 A 
ATOM     24  C3  T20     1      96.758 116.338 148.377  0.00  0.00    +0.007 A 
ATOM     25  C4  T20     1      96.177 117.409 147.674  0.00  0.00    -0.010 A 
ATOM     26  C21 T20     1      96.194 118.698 148.239  0.00  0.00    +0.007 A 
ATOM     27  C22 T20     1      96.789 118.914 149.492  0.00  0.00    +0.000 A 
ENDBRANCH  21  25
ENDBRANCH  20  21
ENDBRANCH   1  20
TORSDOF 4
ENDMDL
MODEL 9
REMARK VINA RESULT:    -8.865      7.754      9.813
REMARK INTER + INTRA:         -10.427
REMARK INTER:                  -9.246
REMARK INTRA:                  -1.181
REMARK UNBOUND:                 0.511
REMARK  Name = ligands_pdb/TRN_CHEMBL50581.pdb
REMARK  4 active torsions:
REMARK  status: ('A' for Active; 'I' for Inactive)
REMARK    1  A    between atoms: C4_4  and  C5_5
REMARK    2  A    between atoms: C5_5  and  O1_6
REMARK    3  A    between atoms: O1_6  and  C6_7
REMARK    4  A    between atoms: C7_10  and  C8_11
REMARK                            x       y       z     vdW  Elec       q    Type
REMARK                         _______ _______ _______ _____ _____    ______ ____
ROOT
ATOM      1  C6  T20     1      94.832 121.296 141.945  0.00  0.00    +0.241 A 
ATOM      2  N1  T20     1      95.675 121.323 140.887  0.00  0.00    -0.125 NA
ATOM      3  N2  T20     1      96.742 120.493 140.920  0.00  0.00    -0.189 N 
ATOM      4  C7  T20     1      97.797 120.269 140.072  0.00  0.00    +0.185 A 
ATOM      5  N3  T20     1      98.674 119.338 140.607  0.00  0.00    -0.127 NA
ATOM      6  N4  T20     1      98.210 118.952 141.775  0.00  0.00    -0.127 NA
ATOM      7  C14 T20     1      97.064 119.653 141.939  0.00  0.00    +0.186 A 
ATOM      8  C15 T20     1      96.205 119.601 143.055  0.00  0.00    +0.033 A 
ATOM      9  C16 T20     1      96.456 118.752 144.150  0.00  0.00    +0.012 A 
ATOM     10  C17 T20     1      95.573 118.732 145.242  0.00  0.00    +0.001 A 
ATOM     11  C18 T20     1      94.440 119.560 145.245  0.00  0.00    +0.001 A 
ATOM     12  C19 T20     1      94.183 120.411 144.157  0.00  0.00    +0.014 A 
ATOM     13  C20 T20     1      95.062 120.440 143.054  0.00  0.00    +0.049 A 
ENDROOT
BRANCH   4  14
ATOM     14  C8  T20     1      98.033 120.905 138.770  0.00  0.00    +0.021 A 
ATOM     15  C9  T20     1      98.190 122.304 138.685  0.00  0.00    +0.011 A 
ATOM     16  C10 T20     1      98.420 122.925 137.445  0.00  0.00    +0.001 A 
ATOM     17  C11 T20     1      98.501 122.153 136.277  0.00  0.00    +0.000 A 
ATOM     18  C12 T20     1      98.355 120.759 136.350  0.00  0.00    +0.001 A 
ATOM     19  C13 T20     1      98.124 120.139 137.589  0.00  0.00    +0.011 A 
ENDBRANCH   4  14
BRANCH   1  20
ATOM     20  O1  T20     1      93.721 122.118 141.954  0.00  0.00    -0.470 OA
BRANCH  20  21
ATOM     21  C5  T20     1      92.571 121.866 141.126  0.00  0.00    +0.266 C 
BRANCH  21  25
ATOM     22  C1  T20     1      89.809 119.347 143.320  0.00  0.00    +0.000 A 
ATOM     23  C2  T20     1      89.933 120.707 143.649  0.00  0.00    +0.000 A 
ATOM     24  C3  T20     1      90.828 121.522 142.937  0.00  0.00    +0.007 A 
ATOM     25  C4  T20     1      91.602 120.984 141.893  0.00  0.00    -0.010 A 
ATOM     26  C21 T20     1      91.475 119.620 141.571  0.00  0.00    +0.007 A 
ATOM     27  C22 T20     1      90.580 118.804 142.282  0.00  0.00    +0.000 A 
ENDBRANCH  21  25
ENDBRANCH  20  21
ENDBRANCH   1  20
TORSDOF 4
ENDMDL
MODEL 10
REMARK VINA RESULT:    -8.830     10.871     12.943
REMARK INTER + INTRA:         -10.384
REMARK INTER:                  -9.193
REMARK INTRA:                  -1.191
REMARK UNBOUND:                 0.511
REMARK  Name = ligands_pdb/TRN_CHEMBL50581.pdb
REMARK  4 active torsions:
REMARK  status: ('A' for Active; 'I' for Inactive)
REMARK    1  A    between atoms: C4_4  and  C5_5
REMARK    2  A    between atoms: C5_5  and  O1_6
REMARK    3  A    between atoms: O1_6  and  C6_7
REMARK    4  A    between atoms: C7_10  and  C8_11
REMARK                            x       y       z     vdW  Elec       q    Type
REMARK                         _______ _______ _______ _____ _____    ______ ____
ROOT
ATOM      1  C6  T20     1      95.766 121.417 138.496  0.00  0.00    +0.241 A 
ATOM      2  N1  T20     1      95.689 122.713 138.113  0.00  0.00    -0.125 NA
ATOM      3  N2  T20     1      96.829 123.305 137.691  0.00  0.00    -0.189 N 
ATOM      4  C7  T20     1      97.139 124.573 137.267  0.00  0.00    +0.185 A 
ATOM      5  N3  T20     1      98.495 124.689 137.001  0.00  0.00    -0.127 NA
ATOM      6  N4  T20     1      99.066 123.528 137.236  0.00  0.00    -0.127 NA
ATOM      7  C14 T20     1      98.058 122.725 137.647  0.00  0.00    +0.186 A 
ATOM      8  C15 T20     1      98.170 121.376 138.038  0.00  0.00    +0.033 A 
ATOM      9  C16 T20     1      99.401 120.693 138.014  0.00  0.00    +0.012 A 
ATOM     10  C17 T20     1      99.468 119.348 138.413  0.00  0.00    +0.001 A 
ATOM     11  C18 T20     1      98.308 118.683 138.839  0.00  0.00    +0.001 A 
ATOM     12  C19 T20     1      97.076 119.357 138.867  0.00  0.00    +0.014 A 
ATOM     13  C20 T20     1      96.996 120.708 138.469  0.00  0.00    +0.049 A 
ENDROOT
BRANCH   4  14
ATOM     14  C8  T20     1      96.214 125.702 137.110  0.00  0.00    +0.021 A 
ATOM     15  C9  T20     1      95.450 125.831 135.931  0.00  0.00    +0.011 A 
ATOM     16  C10 T20     1      94.560 126.906 135.768  0.00  0.00    +0.001 A 
ATOM     17  C11 T20     1      94.418 127.861 136.785  0.00  0.00    +0.000 A 
ATOM     18  C12 T20     1      95.166 127.739 137.967  0.00  0.00    +0.001 A 
ATOM     19  C13 T20     1      96.057 126.665 138.128  0.00  0.00    +0.011 A 
ENDBRANCH   4  14
BRANCH   1  20
ATOM     20  O1  T20     1      94.627 120.763 138.925  0.00  0.00    -0.470 OA
BRANCH  20  21
ATOM     21  C5  T20     1      94.040 121.009 140.216  0.00  0.00    +0.266 C 
BRANCH  21  25
ATOM     22  C1  T20     1      96.226 118.746 143.198  0.00  0.00    +0.000 A 
ATOM     23  C2  T20     1      95.224 118.122 142.438  0.00  0.00    +0.000 A 
ATOM     24  C3  T20     1      94.516 118.856 141.472  0.00  0.00    +0.007 A 
ATOM     25  C4  T20     1      94.808 120.216 141.259  0.00  0.00    -0.010 A 
ATOM     26  C21 T20     1      95.812 120.836 142.025  0.00  0.00    +0.007 A 
ATOM     27  C22 T20     1      96.520 120.103 142.992  0.00  0.00    +0.000 A 
ENDBRANCH  21  25
ENDBRANCH  20  21
ENDBRANCH   1  20
TORSDOF 4
ENDMDL
