MODEL 1
REMARK VINA RESULT:    -9.535      0.000      0.000
REMARK INTER + INTRA:         -12.187
REMARK INTER:                 -11.764
REMARK INTRA:                  -0.423
REMARK UNBOUND:                -0.423
REMARK  Name = ligands_pdb/TRN_CHEMBL361015.pdb
REMARK  5 active torsions:
REMARK  status: ('A' for Active; 'I' for Inactive)
REMARK    1  A    between atoms: C1_1  and  C2_2
REMARK    2  A    between atoms: C4_6  and  C5_7
REMARK    3  A    between atoms: C5_7  and  O1_8
REMARK    4  A    between atoms: O1_8  and  C6_9
REMARK    5  A    between atoms: C7_12  and  C8_13
REMARK                            x       y       z     vdW  Elec       q    Type
REMARK                         _______ _______ _______ _____ _____    ______ ____
ROOT
ATOM      1  C6  T16     1      96.246 118.915 143.137  0.00  0.00    +0.237 A 
ATOM      2  N2  T16     1      96.313 118.648 144.466  0.00  0.00    -0.125 NA
ATOM      3  N3  T16     1      95.175 118.766 145.197  0.00  0.00    -0.189 N 
ATOM      4  C7  T16     1      94.902 118.620 146.540  0.00  0.00    +0.185 A 
ATOM      5  N4  T16     1      93.616 118.942 146.730  0.00  0.00    -0.127 NA
ATOM      6  N5  T16     1      93.079 119.253 145.625  0.00  0.00    -0.127 NA
ATOM      7  C14 T16     1      93.977 119.164 144.695  0.00  0.00    +0.182 A 
ATOM      8  C15 T16     1      93.875 119.457 143.329  0.00  0.00    +0.010 A 
ATOM      9  C16 T16     1      95.030 119.321 142.540  0.00  0.00    +0.026 A 
ATOM     10  C17 T16     1      94.810 119.670 141.068  0.00  0.00    +0.025 C 
ATOM     11  C18 T16     1      94.285 121.136 141.025  0.00  0.00    +0.009 C 
ATOM     12  C19 T16     1      93.007 121.288 141.913  0.00  0.00    +0.009 C 
ATOM     13  C20 T16     1      92.637 119.929 142.575  0.00  0.00    +0.023 C 
ATOM     14  C21 T16     1      92.390 118.900 141.434  0.00  0.00    +0.009 C 
ATOM     15  C22 T16     1      93.671 118.746 140.548  0.00  0.00    +0.009 C 
ENDROOT
BRANCH   4  16
ATOM     16  C8  T16     1      95.832 118.221 147.604  0.00  0.00    +0.021 A 
ATOM     17  C9  T16     1      96.176 119.139 148.618  0.00  0.00    +0.011 A 
ATOM     18  C10 T16     1      97.061 118.773 149.646  0.00  0.00    +0.001 A 
ATOM     19  C11 T16     1      97.609 117.482 149.675  0.00  0.00    +0.000 A 
ATOM     20  C12 T16     1      97.267 116.556 148.676  0.00  0.00    +0.001 A 
ATOM     21  C13 T16     1      96.382 116.923 147.649  0.00  0.00    +0.011 A 
ENDBRANCH   4  16
BRANCH   1  22
ATOM     22  O1  T16     1      97.366 118.803 142.342  0.00  0.00    -0.467 OA
BRANCH  22  23
ATOM     23  C5  T16     1      97.977 119.955 141.721  0.00  0.00    +0.304 C 
BRANCH  23  29
ATOM     24  C1  T16     1      98.028 119.171 136.801  0.00  0.00    +0.067 C 
ATOM     25  C2  T16     1      98.407 119.280 138.251  0.00  0.00    +0.056 A 
ATOM     26  C3  T16     1      99.722 118.914 138.693  0.00  0.00    +0.107 A 
ATOM     27  N1  T16     1      99.687 119.141 140.031  0.00  0.00    -0.345 N 
ATOM     28  H1  T16     1     100.403 119.035 140.735  0.00  0.00    +0.167 HD
ATOM     29  C4  T16     1      98.417 119.618 140.310  0.00  0.00    +0.145 A 
ATOM     30  N6  T16     1      97.628 119.702 139.253  0.00  0.00    -0.234 NA
ENDBRANCH  23  29
ENDBRANCH  22  23
ENDBRANCH   1  22
TORSDOF 4
ENDMDL
MODEL 2
REMARK VINA RESULT:    -8.914      1.445      1.754
REMARK INTER + INTRA:         -11.422
REMARK INTER:                 -10.343
REMARK INTRA:                  -1.079
REMARK UNBOUND:                -0.423
REMARK  Name = ligands_pdb/TRN_CHEMBL361015.pdb
REMARK  5 active torsions:
REMARK  status: ('A' for Active; 'I' for Inactive)
REMARK    1  A    between atoms: C1_1  and  C2_2
REMARK    2  A    between atoms: C4_6  and  C5_7
REMARK    3  A    between atoms: C5_7  and  O1_8
REMARK    4  A    between atoms: O1_8  and  C6_9
REMARK    5  A    between atoms: C7_12  and  C8_13
REMARK                            x       y       z     vdW  Elec       q    Type
REMARK                         _______ _______ _______ _____ _____    ______ ____
ROOT
ATOM      1  C6  T16     1      95.351 120.560 142.513  0.00  0.00    +0.237 A 
ATOM      2  N2  T16     1      95.453 119.947 143.719  0.00  0.00    -0.125 NA
ATOM      3  N3  T16     1      94.559 118.969 144.014  0.00  0.00    -0.189 N 
ATOM      4  C7  T16     1      94.350 118.191 145.133  0.00  0.00    +0.185 A 
ATOM      5  N4  T16     1      93.265 117.440 144.909  0.00  0.00    -0.127 NA
ATOM      6  N5  T16     1      92.806 117.675 143.751  0.00  0.00    -0.127 NA
ATOM      7  C14 T16     1      93.547 118.581 143.195  0.00  0.00    +0.182 A 
ATOM      8  C15 T16     1      93.406 119.200 141.946  0.00  0.00    +0.010 A 
ATOM      9  C16 T16     1      94.331 120.201 141.601  0.00  0.00    +0.026 A 
ATOM     10  C17 T16     1      94.085 120.813 140.223  0.00  0.00    +0.025 C 
ATOM     11  C18 T16     1      92.637 121.386 140.235  0.00  0.00    +0.009 C 
ATOM     12  C19 T16     1      91.610 120.274 140.630  0.00  0.00    +0.009 C 
ATOM     13  C20 T16     1      92.340 118.925 140.892  0.00  0.00    +0.023 C 
ATOM     14  C21 T16     1      93.092 118.535 139.586  0.00  0.00    +0.009 C 
ATOM     15  C22 T16     1      94.121 119.646 139.194  0.00  0.00    +0.009 C 
ENDROOT
BRANCH   4  16
ATOM     16  C8  T16     1      95.131 118.186 146.376  0.00  0.00    +0.021 A 
ATOM     17  C9  T16     1      95.089 119.303 147.238  0.00  0.00    +0.011 A 
ATOM     18  C10 T16     1      95.827 119.312 148.433  0.00  0.00    +0.001 A 
ATOM     19  C11 T16     1      96.613 118.204 148.784  0.00  0.00    +0.000 A 
ATOM     20  C12 T16     1      96.655 117.084 147.939  0.00  0.00    +0.001 A 
ATOM     21  C13 T16     1      95.917 117.074 146.744  0.00  0.00    +0.011 A 
ENDBRANCH   4  16
BRANCH   1  22
ATOM     22  O1  T16     1      96.236 121.554 142.154  0.00  0.00    -0.467 OA
BRANCH  22  23
ATOM     23  C5  T16     1      97.627 121.277 141.890  0.00  0.00    +0.304 C 
BRANCH  23  29
ATOM     24  C1  T16     1      98.062 120.458 136.994  0.00  0.00    +0.067 C 
ATOM     25  C2  T16     1      97.944 120.290 138.483  0.00  0.00    +0.056 A 
ATOM     26  C3  T16     1      97.911 118.982 139.071  0.00  0.00    +0.107 A 
ATOM     27  N1  T16     1      97.799 119.229 140.400  0.00  0.00    -0.345 N 
ATOM     28  H1  T16     1      97.760 118.596 141.186  0.00  0.00    +0.167 HD
ATOM     29  C4  T16     1      97.781 120.607 140.538  0.00  0.00    +0.145 A 
ATOM     30  N6  T16     1      97.859 121.264 139.394  0.00  0.00    -0.234 NA
ENDBRANCH  23  29
ENDBRANCH  22  23
ENDBRANCH   1  22
TORSDOF 4
ENDMDL
MODEL 3
REMARK VINA RESULT:    -8.769      3.889      6.523
REMARK INTER + INTRA:         -11.243
REMARK INTER:                 -10.762
REMARK INTRA:                  -0.481
REMARK UNBOUND:                -0.423
REMARK  Name = ligands_pdb/TRN_CHEMBL361015.pdb
REMARK  5 active torsions:
REMARK  status: ('A' for Active; 'I' for Inactive)
REMARK    1  A    between atoms: C1_1  and  C2_2
REMARK    2  A    between atoms: C4_6  and  C5_7
REMARK    3  A    between atoms: C5_7  and  O1_8
REMARK    4  A    between atoms: O1_8  and  C6_9
REMARK    5  A    between atoms: C7_12  and  C8_13
REMARK                            x       y       z     vdW  Elec       q    Type
REMARK                         _______ _______ _______ _____ _____    ______ ____
ROOT
ATOM      1  C6  T16     1      94.060 116.538 145.443  0.00  0.00    +0.237 A 
ATOM      2  N2  T16     1      94.844 116.217 146.503  0.00  0.00    -0.125 NA
ATOM      3  N3  T16     1      95.807 117.099 146.873  0.00  0.00    -0.189 N 
ATOM      4  C7  T16     1      96.782 117.073 147.847  0.00  0.00    +0.185 A 
ATOM      5  N4  T16     1      97.522 118.181 147.712  0.00  0.00    -0.127 NA
ATOM      6  N5  T16     1      97.076 118.886 146.758  0.00  0.00    -0.127 NA
ATOM      7  C14 T16     1      96.062 118.271 146.235  0.00  0.00    +0.182 A 
ATOM      8  C15 T16     1      95.278 118.629 145.131  0.00  0.00    +0.010 A 
ATOM      9  C16 T16     1      94.256 117.748 144.737  0.00  0.00    +0.026 A 
ATOM     10  C17 T16     1      93.466 118.230 143.521  0.00  0.00    +0.025 C 
ATOM     11  C18 T16     1      94.493 118.432 142.366  0.00  0.00    +0.009 C 
ATOM     12  C19 T16     1      95.635 119.404 142.810  0.00  0.00    +0.009 C 
ATOM     13  C20 T16     1      95.406 119.883 144.273  0.00  0.00    +0.023 C 
ATOM     14  C21 T16     1      94.026 120.602 144.324  0.00  0.00    +0.009 C 
ATOM     15  C22 T16     1      92.885 119.627 143.882  0.00  0.00    +0.009 C 
ENDROOT
BRANCH   4  16
ATOM     16  C8  T16     1      97.021 116.023 148.845  0.00  0.00    +0.021 A 
ATOM     17  C9  T16     1      97.386 116.374 150.162  0.00  0.00    +0.011 A 
ATOM     18  C10 T16     1      97.614 115.383 151.131  0.00  0.00    +0.001 A 
ATOM     19  C11 T16     1      97.475 114.027 150.796  0.00  0.00    +0.000 A 
ATOM     20  C12 T16     1      97.103 113.666 149.492  0.00  0.00    +0.001 A 
ATOM     21  C13 T16     1      96.875 114.658 148.523  0.00  0.00    +0.011 A 
ENDBRANCH   4  16
BRANCH   1  22
ATOM     22  O1  T16     1      93.061 115.686 145.026  0.00  0.00    -0.467 OA
BRANCH  22  23
ATOM     23  C5  T16     1      92.853 114.397 145.641  0.00  0.00    +0.304 C 
BRANCH  23  29
ATOM     24  C1  T16     1      88.953 111.386 144.897  0.00  0.00    +0.067 C 
ATOM     25  C2  T16     1      89.868 112.576 144.965  0.00  0.00    +0.056 A 
ATOM     26  C3  T16     1      89.432 113.861 144.499  0.00  0.00    +0.107 A 
ATOM     27  N1  T16     1      90.504 114.663 144.717  0.00  0.00    -0.345 N 
ATOM     28  H1  T16     1      90.630 115.652 144.552  0.00  0.00    +0.167 HD
ATOM     29  C4  T16     1      91.480 113.861 145.285  0.00  0.00    +0.145 A 
ATOM     30  N6  T16     1      91.119 112.599 145.436  0.00  0.00    -0.234 NA
ENDBRANCH  23  29
ENDBRANCH  22  23
ENDBRANCH   1  22
TORSDOF 4
ENDMDL
MODEL 4
REMARK VINA RESULT:    -8.437      4.602      9.554
REMARK INTER + INTRA:         -10.834
REMARK INTER:                  -9.672
REMARK INTRA:                  -1.161
REMARK UNBOUND:                -0.423
REMARK  Name = ligands_pdb/TRN_CHEMBL361015.pdb
REMARK  5 active torsions:
REMARK  status: ('A' for Active; 'I' for Inactive)
REMARK    1  A    between atoms: C1_1  and  C2_2
REMARK    2  A    between atoms: C4_6  and  C5_7
REMARK    3  A    between atoms: C5_7  and  O1_8
REMARK    4  A    between atoms: O1_8  and  C6_9
REMARK    5  A    between atoms: C7_12  and  C8_13
REMARK                            x       y       z     vdW  Elec       q    Type
REMARK                         _______ _______ _______ _____ _____    ______ ____
ROOT
ATOM      1  C6  T16     1      95.423 121.829 137.779  0.00  0.00    +0.237 A 
ATOM      2  N2  T16     1      95.448 123.170 137.568  0.00  0.00    -0.125 NA
ATOM      3  N3  T16     1      96.659 123.779 137.483  0.00  0.00    -0.189 N 
ATOM      4  C7  T16     1      97.041 125.093 137.325  0.00  0.00    +0.185 A 
ATOM      5  N4  T16     1      98.378 125.139 137.395  0.00  0.00    -0.127 NA
ATOM      6  N5  T16     1      98.843 123.972 137.564  0.00  0.00    -0.127 NA
ATOM      7  C14 T16     1      97.850 123.142 137.626  0.00  0.00    +0.182 A 
ATOM      8  C15 T16     1      97.861 121.760 137.854  0.00  0.00    +0.010 A 
ATOM      9  C16 T16     1      96.623 121.096 137.924  0.00  0.00    +0.026 A 
ATOM     10  C17 T16     1      96.747 119.595 138.181  0.00  0.00    +0.025 C 
ATOM     11  C18 T16     1      97.535 119.429 139.515  0.00  0.00    +0.009 C 
ATOM     12  C19 T16     1      98.906 120.177 139.440  0.00  0.00    +0.009 C 
ATOM     13  C20 T16     1      99.078 120.864 138.054  0.00  0.00    +0.023 C 
ATOM     14  C21 T16     1      99.001 119.755 136.965  0.00  0.00    +0.009 C 
ATOM     15  C22 T16     1      97.627 119.009 137.039  0.00  0.00    +0.009 C 
ENDROOT
BRANCH   4  16
ATOM     16  C8  T16     1      96.171 126.262 137.145  0.00  0.00    +0.021 A 
ATOM     17  C9  T16     1      95.875 126.725 135.846  0.00  0.00    +0.011 A 
ATOM     18  C10 T16     1      95.041 127.840 135.655  0.00  0.00    +0.001 A 
ATOM     19  C11 T16     1      94.488 128.502 136.762  0.00  0.00    +0.000 A 
ATOM     20  C12 T16     1      94.768 128.044 138.059  0.00  0.00    +0.001 A 
ATOM     21  C13 T16     1      95.602 126.930 138.249  0.00  0.00    +0.011 A 
ENDBRANCH   4  16
BRANCH   1  22
ATOM     22  O1  T16     1      94.224 121.156 137.865  0.00  0.00    -0.467 OA
BRANCH  22  23
ATOM     23  C5  T16     1      93.326 121.338 138.981  0.00  0.00    +0.304 C 
BRANCH  23  29
ATOM     24  C1  T16     1      95.575 120.198 143.279  0.00  0.00    +0.067 C 
ATOM     25  C2  T16     1      94.807 120.136 141.989  0.00  0.00    +0.056 A 
ATOM     26  C3  T16     1      94.272 118.893 141.515  0.00  0.00    +0.107 A 
ATOM     27  N1  T16     1      93.661 119.228 140.351  0.00  0.00    -0.345 N 
ATOM     28  H1  T16     1      93.140 118.663 139.695  0.00  0.00    +0.167 HD
ATOM     29  C4  T16     1      93.842 120.592 140.196  0.00  0.00    +0.145 A 
ATOM     30  N6  T16     1      94.536 121.157 141.168  0.00  0.00    -0.234 NA
ENDBRANCH  23  29
ENDBRANCH  22  23
ENDBRANCH   1  22
TORSDOF 4
ENDMDL
MODEL 5
REMARK VINA RESULT:    -8.322      2.725      7.292
REMARK INTER + INTRA:         -10.691
REMARK INTER:                  -9.771
REMARK INTRA:                  -0.920
REMARK UNBOUND:                -0.423
REMARK  Name = ligands_pdb/TRN_CHEMBL361015.pdb
REMARK  5 active torsions:
REMARK  status: ('A' for Active; 'I' for Inactive)
REMARK    1  A    between atoms: C1_1  and  C2_2
REMARK    2  A    between atoms: C4_6  and  C5_7
REMARK    3  A    between atoms: C5_7  and  O1_8
REMARK    4  A    between atoms: O1_8  and  C6_9
REMARK    5  A    between atoms: C7_12  and  C8_13
REMARK                            x       y       z     vdW  Elec       q    Type
REMARK                         _______ _______ _______ _____ _____    ______ ____
ROOT
ATOM      1  C6  T16     1      94.043 118.641 141.756  0.00  0.00    +0.237 A 
ATOM      2  N2  T16     1      95.093 118.941 140.951  0.00  0.00    -0.125 NA
ATOM      3  N3  T16     1      96.325 119.024 141.514  0.00  0.00    -0.189 N 
ATOM      4  C7  T16     1      97.569 119.343 141.013  0.00  0.00    +0.185 A 
ATOM      5  N4  T16     1      98.429 119.355 142.039  0.00  0.00    -0.127 NA
ATOM      6  N5  T16     1      97.827 119.054 143.113  0.00  0.00    -0.127 NA
ATOM      7  C14 T16     1      96.576 118.857 142.839  0.00  0.00    +0.182 A 
ATOM      8  C15 T16     1      95.514 118.556 143.701  0.00  0.00    +0.010 A 
ATOM      9  C16 T16     1      94.229 118.440 143.144  0.00  0.00    +0.026 A 
ATOM     10  C17 T16     1      93.143 118.116 144.170  0.00  0.00    +0.025 C 
ATOM     11  C18 T16     1      93.179 119.249 145.238  0.00  0.00    +0.009 C 
ATOM     12  C19 T16     1      94.612 119.384 145.849  0.00  0.00    +0.009 C 
ATOM     13  C20 T16     1      95.578 118.345 145.209  0.00  0.00    +0.023 C 
ATOM     14  C21 T16     1      94.997 116.928 145.487  0.00  0.00    +0.009 C 
ATOM     15  C22 T16     1      93.564 116.793 144.873  0.00  0.00    +0.009 C 
ENDROOT
BRANCH   4  16
ATOM     16  C8  T16     1      97.919 119.656 139.622  0.00  0.00    +0.021 A 
ATOM     17  C9  T16     1      98.655 120.823 139.327  0.00  0.00    +0.011 A 
ATOM     18  C10 T16     1      99.002 121.135 138.002  0.00  0.00    +0.001 A 
ATOM     19  C11 T16     1      98.621 120.281 136.955  0.00  0.00    +0.000 A 
ATOM     20  C12 T16     1      97.896 119.113 137.238  0.00  0.00    +0.001 A 
ATOM     21  C13 T16     1      97.549 118.801 138.563  0.00  0.00    +0.011 A 
ENDBRANCH   4  16
BRANCH   1  22
ATOM     22  O1  T16     1      92.770 118.536 141.239  0.00  0.00    -0.467 OA
BRANCH  22  23
ATOM     23  C5  T16     1      92.156 119.612 140.499  0.00  0.00    +0.304 C 
BRANCH  23  29
ATOM     24  C1  T16     1      89.456 122.172 143.814  0.00  0.00    +0.067 C 
ATOM     25  C2  T16     1      90.504 121.744 142.825  0.00  0.00    +0.056 A 
ATOM     26  C3  T16     1      91.576 122.626 142.468  0.00  0.00    +0.107 A 
ATOM     27  N1  T16     1      92.300 121.908 141.572  0.00  0.00    -0.345 N 
ATOM     28  H1  T16     1      93.150 122.138 141.079  0.00  0.00    +0.167 HD
ATOM     29  C4  T16     1      91.661 120.686 141.449  0.00  0.00    +0.145 A 
ATOM     30  N6  T16     1      90.572 120.569 142.189  0.00  0.00    -0.234 NA
ENDBRANCH  23  29
ENDBRANCH  22  23
ENDBRANCH   1  22
TORSDOF 4
ENDMDL
MODEL 6
REMARK VINA RESULT:    -8.283      2.012      7.200
REMARK INTER + INTRA:         -10.643
REMARK INTER:                 -10.028
REMARK INTRA:                  -0.615
REMARK UNBOUND:                -0.423
REMARK  Name = ligands_pdb/TRN_CHEMBL361015.pdb
REMARK  5 active torsions:
REMARK  status: ('A' for Active; 'I' for Inactive)
REMARK    1  A    between atoms: C1_1  and  C2_2
REMARK    2  A    between atoms: C4_6  and  C5_7
REMARK    3  A    between atoms: C5_7  and  O1_8
REMARK    4  A    between atoms: O1_8  and  C6_9
REMARK    5  A    between atoms: C7_12  and  C8_13
REMARK                            x       y       z     vdW  Elec       q    Type
REMARK                         _______ _______ _______ _____ _____    ______ ____
ROOT
ATOM      1  C6  T16     1      94.209 118.974 143.026  0.00  0.00    +0.237 A 
ATOM      2  N2  T16     1      95.158 119.237 142.092  0.00  0.00    -0.125 NA
ATOM      3  N3  T16     1      94.748 119.687 140.878  0.00  0.00    -0.189 N 
ATOM      4  C7  T16     1      95.420 120.000 139.716  0.00  0.00    +0.185 A 
ATOM      5  N4  T16     1      94.505 120.314 138.790  0.00  0.00    -0.127 NA
ATOM      6  N5  T16     1      93.342 120.237 139.286  0.00  0.00    -0.127 NA
ATOM      7  C14 T16     1      93.449 119.863 140.522  0.00  0.00    +0.182 A 
ATOM      8  C15 T16     1      92.444 119.591 141.459  0.00  0.00    +0.010 A 
ATOM      9  C16 T16     1      92.836 119.146 142.734  0.00  0.00    +0.026 A 
ATOM     10  C17 T16     1      91.664 118.874 143.675  0.00  0.00    +0.025 C 
ATOM     11  C18 T16     1      90.761 117.814 142.978  0.00  0.00    +0.009 C 
ATOM     12  C19 T16     1      90.335 118.304 141.556  0.00  0.00    +0.009 C 
ATOM     13  C20 T16     1      90.937 119.709 141.259  0.00  0.00    +0.023 C 
ATOM     14  C21 T16     1      90.417 120.685 142.354  0.00  0.00    +0.009 C 
ATOM     15  C22 T16     1      90.846 120.195 143.776  0.00  0.00    +0.009 C 
ENDROOT
BRANCH   4  16
ATOM     16  C8  T16     1      96.870 119.973 139.486  0.00  0.00    +0.021 A 
ATOM     17  C9  T16     1      97.502 118.765 139.123  0.00  0.00    +0.011 A 
ATOM     18  C10 T16     1      98.887 118.722 138.896  0.00  0.00    +0.001 A 
ATOM     19  C11 T16     1      99.658 119.887 139.024  0.00  0.00    +0.000 A 
ATOM     20  C12 T16     1      99.039 121.097 139.376  0.00  0.00    +0.001 A 
ATOM     21  C13 T16     1      97.654 121.140 139.603  0.00  0.00    +0.011 A 
ENDBRANCH   4  16
BRANCH   1  22
ATOM     22  O1  T16     1      94.565 118.523 144.279  0.00  0.00    -0.467 OA
BRANCH  22  23
ATOM     23  C5  T16     1      94.735 119.425 145.393  0.00  0.00    +0.304 C 
BRANCH  23  29
ATOM     24  C1  T16     1      97.008 118.408 149.709  0.00  0.00    +0.067 C 
ATOM     25  C2  T16     1      96.344 118.302 148.365  0.00  0.00    +0.056 A 
ATOM     26  C3  T16     1      96.183 117.027 147.728  0.00  0.00    +0.107 A 
ATOM     27  N1  T16     1      95.559 117.327 146.561  0.00  0.00    -0.345 N 
ATOM     28  H1  T16     1      95.238 116.728 145.814  0.00  0.00    +0.167 HD
ATOM     29  C4  T16     1      95.376 118.700 146.561  0.00  0.00    +0.145 A 
ATOM     30  N6  T16     1      95.848 119.307 147.636  0.00  0.00    -0.234 NA
ENDBRANCH  23  29
ENDBRANCH  22  23
ENDBRANCH   1  22
TORSDOF 4
ENDMDL
MODEL 7
REMARK VINA RESULT:    -8.209      2.081      6.760
REMARK INTER + INTRA:         -10.552
REMARK INTER:                  -9.561
REMARK INTRA:                  -0.992
REMARK UNBOUND:                -0.423
REMARK  Name = ligands_pdb/TRN_CHEMBL361015.pdb
REMARK  5 active torsions:
REMARK  status: ('A' for Active; 'I' for Inactive)
REMARK    1  A    between atoms: C1_1  and  C2_2
REMARK    2  A    between atoms: C4_6  and  C5_7
REMARK    3  A    between atoms: C5_7  and  O1_8
REMARK    4  A    between atoms: O1_8  and  C6_9
REMARK    5  A    between atoms: C7_12  and  C8_13
REMARK                            x       y       z     vdW  Elec       q    Type
REMARK                         _______ _______ _______ _____ _____    ______ ____
ROOT
ATOM      1  C6  T16     1      96.452 119.094 141.293  0.00  0.00    +0.237 A 
ATOM      2  N2  T16     1      95.116 119.206 141.501  0.00  0.00    -0.125 NA
ATOM      3  N3  T16     1      94.356 119.716 140.499  0.00  0.00    -0.189 N 
ATOM      4  C7  T16     1      93.012 120.003 140.391  0.00  0.00    +0.185 A 
ATOM      5  N4  T16     1      92.814 120.578 139.197  0.00  0.00    -0.127 NA
ATOM      6  N5  T16     1      93.910 120.650 138.564  0.00  0.00    -0.127 NA
ATOM      7  C14 T16     1      94.846 120.153 139.310  0.00  0.00    +0.182 A 
ATOM      8  C15 T16     1      96.222 120.061 139.065  0.00  0.00    +0.010 A 
ATOM      9  C16 T16     1      97.034 119.515 140.075  0.00  0.00    +0.026 A 
ATOM     10  C17 T16     1      98.517 119.466 139.709  0.00  0.00    +0.025 C 
ATOM     11  C18 T16     1      98.951 120.927 139.387  0.00  0.00    +0.009 C 
ATOM     12  C19 T16     1      98.040 121.537 138.271  0.00  0.00    +0.009 C 
ATOM     13  C20 T16     1      96.971 120.503 137.813  0.00  0.00    +0.023 C 
ATOM     14  C21 T16     1      97.725 119.251 137.278  0.00  0.00    +0.009 C 
ATOM     15  C22 T16     1      98.633 118.640 138.396  0.00  0.00    +0.009 C 
ENDROOT
BRANCH   4  16
ATOM     16  C8  T16     1      91.964 119.769 141.392  0.00  0.00    +0.021 A 
ATOM     17  C9  T16     1      91.043 118.716 141.214  0.00  0.00    +0.011 A 
ATOM     18  C10 T16     1      90.037 118.476 142.164  0.00  0.00    +0.001 A 
ATOM     19  C11 T16     1      89.942 119.284 143.308  0.00  0.00    +0.000 A 
ATOM     20  C12 T16     1      90.859 120.329 143.501  0.00  0.00    +0.001 A 
ATOM     21  C13 T16     1      91.865 120.569 142.550  0.00  0.00    +0.011 A 
ENDBRANCH   4  16
BRANCH   1  22
ATOM     22  O1  T16     1      97.273 118.576 142.272  0.00  0.00    -0.467 OA
BRANCH  22  23
ATOM     23  C5  T16     1      97.695 119.360 143.408  0.00  0.00    +0.304 C 
BRANCH  23  29
ATOM     24  C1  T16     1      96.395 118.333 148.107  0.00  0.00    +0.067 C 
ATOM     25  C2  T16     1      96.398 118.518 146.615  0.00  0.00    +0.056 A 
ATOM     26  C3  T16     1      95.241 118.186 145.835  0.00  0.00    +0.107 A 
ATOM     27  N1  T16     1      95.615 118.479 144.564  0.00  0.00    -0.345 N 
ATOM     28  H1  T16     1      95.102 118.414 143.697  0.00  0.00    +0.167 HD
ATOM     29  C4  T16     1      96.912 118.958 144.642  0.00  0.00    +0.145 A 
ATOM     30  N6  T16     1      97.405 118.982 145.868  0.00  0.00    -0.234 NA
ENDBRANCH  23  29
ENDBRANCH  22  23
ENDBRANCH   1  22
TORSDOF 4
ENDMDL
MODEL 8
REMARK VINA RESULT:    -8.189      2.903      7.462
REMARK INTER + INTRA:         -10.527
REMARK INTER:                  -9.839
REMARK INTRA:                  -0.688
REMARK UNBOUND:                -0.423
REMARK  Name = ligands_pdb/TRN_CHEMBL361015.pdb
REMARK  5 active torsions:
REMARK  status: ('A' for Active; 'I' for Inactive)
REMARK    1  A    between atoms: C1_1  and  C2_2
REMARK    2  A    between atoms: C4_6  and  C5_7
REMARK    3  A    between atoms: C5_7  and  O1_8
REMARK    4  A    between atoms: O1_8  and  C6_9
REMARK    5  A    between atoms: C7_12  and  C8_13
REMARK                            x       y       z     vdW  Elec       q    Type
REMARK                         _______ _______ _______ _____ _____    ______ ____
ROOT
ATOM      1  C6  T16     1      94.008 119.081 141.651  0.00  0.00    +0.237 A 
ATOM      2  N2  T16     1      95.064 119.323 140.832  0.00  0.00    -0.125 NA
ATOM      3  N3  T16     1      96.312 119.225 141.357  0.00  0.00    -0.189 N 
ATOM      4  C7  T16     1      97.570 119.442 140.837  0.00  0.00    +0.185 A 
ATOM      5  N4  T16     1      98.453 119.279 141.831  0.00  0.00    -0.127 NA
ATOM      6  N5  T16     1      97.850 118.966 142.900  0.00  0.00    -0.127 NA
ATOM      7  C14 T16     1      96.578 118.930 142.656  0.00  0.00    +0.182 A 
ATOM      8  C15 T16     1      95.512 118.683 143.531  0.00  0.00    +0.010 A 
ATOM      9  C16 T16     1      94.207 118.754 143.012  0.00  0.00    +0.026 A 
ATOM     10  C17 T16     1      93.120 118.475 144.049  0.00  0.00    +0.025 C 
ATOM     11  C18 T16     1      93.312 119.512 145.195  0.00  0.00    +0.009 C 
ATOM     12  C19 T16     1      94.767 119.440 145.764  0.00  0.00    +0.009 C 
ATOM     13  C20 T16     1      95.592 118.352 145.017  0.00  0.00    +0.023 C 
ATOM     14  C21 T16     1      94.861 116.991 145.210  0.00  0.00    +0.009 C 
ATOM     15  C22 T16     1      93.407 117.064 144.639  0.00  0.00    +0.009 C 
ENDROOT
BRANCH   4  16
ATOM     16  C8  T16     1      97.916 119.819 139.461  0.00  0.00    +0.021 A 
ATOM     17  C9  T16     1      98.457 118.857 138.583  0.00  0.00    +0.011 A 
ATOM     18  C10 T16     1      98.790 119.201 137.262  0.00  0.00    +0.001 A 
ATOM     19  C11 T16     1      98.582 120.509 136.801  0.00  0.00    +0.000 A 
ATOM     20  C12 T16     1      98.035 121.473 137.663  0.00  0.00    +0.001 A 
ATOM     21  C13 T16     1      97.702 121.129 138.984  0.00  0.00    +0.011 A 
ENDBRANCH   4  16
BRANCH   1  22
ATOM     22  O1  T16     1      92.718 119.157 141.172  0.00  0.00    -0.467 OA
BRANCH  22  23
ATOM     23  C5  T16     1      92.422 119.075 139.762  0.00  0.00    +0.304 C 
BRANCH  23  29
ATOM     24  C1  T16     1      88.485 116.038 140.093  0.00  0.00    +0.067 C 
ATOM     25  C2  T16     1      89.442 117.126 139.693  0.00  0.00    +0.056 A 
ATOM     26  C3  T16     1      89.118 118.030 138.628  0.00  0.00    +0.107 A 
ATOM     27  N1  T16     1      90.198 118.849 138.560  0.00  0.00    -0.345 N 
ATOM     28  H1  T16     1      90.386 119.640 137.962  0.00  0.00    +0.167 HD
ATOM     29  C4  T16     1      91.070 118.422 139.547  0.00  0.00    +0.145 A 
ATOM     30  N6  T16     1      90.637 117.381 140.236  0.00  0.00    -0.234 NA
ENDBRANCH  23  29
ENDBRANCH  22  23
ENDBRANCH   1  22
TORSDOF 4
ENDMDL
MODEL 9
REMARK VINA RESULT:    -8.139      3.218      6.226
REMARK INTER + INTRA:         -10.465
REMARK INTER:                  -9.518
REMARK INTRA:                  -0.947
REMARK UNBOUND:                -0.423
REMARK  Name = ligands_pdb/TRN_CHEMBL361015.pdb
REMARK  5 active torsions:
REMARK  status: ('A' for Active; 'I' for Inactive)
REMARK    1  A    between atoms: C1_1  and  C2_2
REMARK    2  A    between atoms: C4_6  and  C5_7
REMARK    3  A    between atoms: C5_7  and  O1_8
REMARK    4  A    between atoms: O1_8  and  C6_9
REMARK    5  A    between atoms: C7_12  and  C8_13
REMARK                            x       y       z     vdW  Elec       q    Type
REMARK                         _______ _______ _______ _____ _____    ______ ____
ROOT
ATOM      1  C6  T16     1      95.496 120.171 139.017  0.00  0.00    +0.237 A 
ATOM      2  N2  T16     1      95.307 119.870 140.326  0.00  0.00    -0.125 NA
ATOM      3  N3  T16     1      96.404 119.642 141.093  0.00  0.00    -0.189 N 
ATOM      4  C7  T16     1      96.570 119.278 142.412  0.00  0.00    +0.185 A 
ATOM      5  N4  T16     1      97.882 119.106 142.623  0.00  0.00    -0.127 NA
ATOM      6  N5  T16     1      98.528 119.348 141.560  0.00  0.00    -0.127 NA
ATOM      7  C14 T16     1      97.681 119.664 140.631  0.00  0.00    +0.182 A 
ATOM      8  C15 T16     1      97.913 119.962 139.282  0.00  0.00    +0.010 A 
ATOM      9  C16 T16     1      96.798 120.226 138.467  0.00  0.00    +0.026 A 
ATOM     10  C17 T16     1      97.161 120.534 137.014  0.00  0.00    +0.025 C 
ATOM     11  C18 T16     1      97.954 119.306 136.477  0.00  0.00    +0.009 C 
ATOM     12  C19 T16     1      99.187 119.006 137.391  0.00  0.00    +0.009 C 
ATOM     13  C20 T16     1      99.257 120.025 138.565  0.00  0.00    +0.023 C 
ATOM     14  C21 T16     1      99.368 121.449 137.948  0.00  0.00    +0.009 C 
ATOM     15  C22 T16     1      98.132 121.749 137.036  0.00  0.00    +0.009 C 
ENDROOT
BRANCH   4  16
ATOM     16  C8  T16     1      95.525 119.072 143.421  0.00  0.00    +0.021 A 
ATOM     17  C9  T16     1      94.694 120.147 143.803  0.00  0.00    +0.011 A 
ATOM     18  C10 T16     1      93.686 119.966 144.764  0.00  0.00    +0.001 A 
ATOM     19  C11 T16     1      93.492 118.707 145.353  0.00  0.00    +0.000 A 
ATOM     20  C12 T16     1      94.306 117.628 144.974  0.00  0.00    +0.001 A 
ATOM     21  C13 T16     1      95.315 117.809 144.013  0.00  0.00    +0.011 A 
ENDBRANCH   4  16
BRANCH   1  22
ATOM     22  O1  T16     1      94.421 120.421 138.192  0.00  0.00    -0.467 OA
BRANCH  22  23
ATOM     23  C5  T16     1      93.207 121.027 138.684  0.00  0.00    +0.304 C 
BRANCH  23  29
ATOM     24  C1  T16     1      88.954 118.463 138.276  0.00  0.00    +0.067 C 
ATOM     25  C2  T16     1      90.327 118.933 138.668  0.00  0.00    +0.056 A 
ATOM     26  C3  T16     1      91.098 118.211 139.638  0.00  0.00    +0.107 A 
ATOM     27  N1  T16     1      92.250 118.921 139.728  0.00  0.00    -0.345 N 
ATOM     28  H1  T16     1      93.080 118.760 140.280  0.00  0.00    +0.167 HD
ATOM     29  C4  T16     1      92.124 119.978 138.843  0.00  0.00    +0.145 A 
ATOM     30  N6  T16     1      90.970 120.008 138.199  0.00  0.00    -0.234 NA
ENDBRANCH  23  29
ENDBRANCH  22  23
ENDBRANCH   1  22
TORSDOF 4
ENDMDL
MODEL 10
REMARK VINA RESULT:    -8.041      2.463      7.214
REMARK INTER + INTRA:         -10.345
REMARK INTER:                  -9.469
REMARK INTRA:                  -0.876
REMARK UNBOUND:                -0.423
REMARK  Name = ligands_pdb/TRN_CHEMBL361015.pdb
REMARK  5 active torsions:
REMARK  status: ('A' for Active; 'I' for Inactive)
REMARK    1  A    between atoms: C1_1  and  C2_2
REMARK    2  A    between atoms: C4_6  and  C5_7
REMARK    3  A    between atoms: C5_7  and  O1_8
REMARK    4  A    between atoms: O1_8  and  C6_9
REMARK    5  A    between atoms: C7_12  and  C8_13
REMARK                            x       y       z     vdW  Elec       q    Type
REMARK                         _______ _______ _______ _____ _____    ______ ____
ROOT
ATOM      1  C6  T16     1      93.313 118.951 140.902  0.00  0.00    +0.237 A 
ATOM      2  N2  T16     1      94.516 119.236 140.342  0.00  0.00    -0.125 NA
ATOM      3  N3  T16     1      94.531 120.010 139.226  0.00  0.00    -0.189 N 
ATOM      4  C7  T16     1      95.543 120.444 138.397  0.00  0.00    +0.185 A 
ATOM      5  N4  T16     1      94.979 121.117 137.386  0.00  0.00    -0.127 NA
ATOM      6  N5  T16     1      93.720 121.146 137.533  0.00  0.00    -0.127 NA
ATOM      7  C14 T16     1      93.421 120.494 138.612  0.00  0.00    +0.182 A 
ATOM      8  C15 T16     1      92.162 120.210 139.159  0.00  0.00    +0.010 A 
ATOM      9  C16 T16     1      92.114 119.431 140.327  0.00  0.00    +0.026 A 
ATOM     10  C17 T16     1      90.695 119.176 140.835  0.00  0.00    +0.025 C 
ATOM     11  C18 T16     1      89.919 118.479 139.679  0.00  0.00    +0.009 C 
ATOM     12  C19 T16     1      89.984 119.341 138.376  0.00  0.00    +0.009 C 
ATOM     13  C20 T16     1      90.802 120.642 138.622  0.00  0.00    +0.023 C 
ATOM     14  C21 T16     1      90.101 121.431 139.766  0.00  0.00    +0.009 C 
ATOM     15  C22 T16     1      90.040 120.568 141.069  0.00  0.00    +0.009 C 
ENDROOT
BRANCH   4  16
ATOM     16  C8  T16     1      96.984 120.204 138.544  0.00  0.00    +0.021 A 
ATOM     17  C9  T16     1      97.735 120.967 139.462  0.00  0.00    +0.011 A 
ATOM     18  C10 T16     1      99.114 120.747 139.618  0.00  0.00    +0.001 A 
ATOM     19  C11 T16     1      99.758 119.758 138.860  0.00  0.00    +0.000 A 
ATOM     20  C12 T16     1      99.020 118.986 137.949  0.00  0.00    +0.001 A 
ATOM     21  C13 T16     1      97.641 119.206 137.794  0.00  0.00    +0.011 A 
ENDBRANCH   4  16
BRANCH   1  22
ATOM     22  O1  T16     1      93.236 118.177 142.040  0.00  0.00    -0.467 OA
BRANCH  22  23
ATOM     23  C5  T16     1      93.084 118.763 143.351  0.00  0.00    +0.304 C 
BRANCH  23  29
ATOM     24  C1  T16     1      96.449 118.302 146.996  0.00  0.00    +0.067 C 
ATOM     25  C2  T16     1      95.776 118.494 145.666  0.00  0.00    +0.056 A 
ATOM     26  C3  T16     1      96.549 118.751 144.485  0.00  0.00    +0.107 A 
ATOM     27  N1  T16     1      95.615 118.866 143.508  0.00  0.00    -0.345 N 
ATOM     28  H1  T16     1      95.717 119.030 142.517  0.00  0.00    +0.167 HD
ATOM     29  C4  T16     1      94.387 118.672 144.120  0.00  0.00    +0.145 A 
ATOM     30  N6  T16     1      94.462 118.454 145.421  0.00  0.00    -0.234 NA
ENDBRANCH  23  29
ENDBRANCH  22  23
ENDBRANCH   1  22
TORSDOF 4
ENDMDL
