MODEL 1
REMARK VINA RESULT:    -7.351      0.000      0.000
REMARK INTER + INTRA:         -10.202
REMARK INTER:                  -9.499
REMARK INTRA:                  -0.703
REMARK UNBOUND:                -0.703
REMARK  Name = ligands_pdb/TRN_CHEMBL291335.pdb
REMARK  8 active torsions:
REMARK  status: ('A' for Active; 'I' for Inactive)
REMARK    1  A    between atoms: C1_1  and  O1_2
REMARK    2  A    between atoms: O1_2  and  C2_3
REMARK    3  A    between atoms: C2_3  and  C3_5
REMARK    4  A    between atoms: C5_7  and  C6_8
REMARK    5  A    between atoms: C9_11  and  O3_12
REMARK    6  A    between atoms: O3_12  and  C10_13
REMARK    7  A    between atoms: C13_16  and  C14_17
REMARK    8  A    between atoms: N2_23  and  C19_24
REMARK                            x       y       z     vdW  Elec       q    Type
REMARK                         _______ _______ _______ _____ _____    ______ ____
ROOT
ATOM      1  C3  T11     1      95.455 118.794 145.159  0.00  0.00    +0.124 A 
ATOM      2  C4  T11     1      96.247 119.002 144.035  0.00  0.00    +0.031 A 
ATOM      3  C5  T11     1      95.673 119.432 142.863  0.00  0.00    +0.007 A 
ATOM      4  C13 T11     1      94.319 119.685 142.766  0.00  0.00    +0.061 A 
ATOM      5  N2  T11     1      93.484 119.515 143.870  0.00  0.00    -0.310 N 
ATOM      6  C19 T11     1      92.043 119.838 143.741  0.00  0.00    +0.152 C 
ATOM      7  C20 T11     1      93.976 119.050 145.099  0.00  0.00    +0.266 A 
ATOM      8  O4  T11     1      93.215 118.875 146.039  0.00  0.00    -0.267 OA
ENDROOT
BRANCH   3   9
ATOM      9  C6  T11     1      96.560 119.602 141.708  0.00  0.00    -0.016 A 
ATOM     10  C7  T11     1      97.319 120.779 141.570  0.00  0.00    +0.012 A 
ATOM     11  C8  T11     1      98.167 120.951 140.464  0.00  0.00    +0.046 A 
ATOM     12  C9  T11     1      98.270 119.947 139.487  0.00  0.00    +0.120 A 
ATOM     13  C11 T11     1      97.519 118.763 139.626  0.00  0.00    +0.046 A 
ATOM     14  C12 T11     1      96.673 118.592 140.735  0.00  0.00    +0.012 A 
BRANCH  12  15
ATOM     15  O3  T11     1      99.119 120.172 138.422  0.00  0.00    -0.495 OA
ATOM     16  C10 T11     1      98.822 119.756 137.077  0.00  0.00    +0.277 C 
ENDBRANCH  12  15
ENDBRANCH   3   9
BRANCH   4  17
ATOM     17  C14 T11     1      93.799 120.150 141.474  0.00  0.00    +0.017 A 
ATOM     18  C15 T11     1      93.324 119.235 140.517  0.00  0.00    +0.013 A 
ATOM     19  C16 T11     1      92.844 119.726 139.293  0.00  0.00    +0.020 A 
ATOM     20  C17 T11     1      92.852 121.114 139.070  0.00  0.00    +0.111 A 
ATOM     21  N1  T11     1      93.301 121.997 139.984  0.00  0.00    -0.263 NA
ATOM     22  C18 T11     1      93.763 121.523 141.159  0.00  0.00    +0.120 A 
ENDBRANCH   4  17
BRANCH   1  23
ATOM     23  C2  T11     1      96.109 118.350 146.294  0.00  0.00    +0.344 C 
ATOM     24  O2  T11     1      97.065 118.935 146.801  0.00  0.00    -0.245 OA
BRANCH  23  26
ATOM     25  C1  T11     1      96.354 116.618 147.997  0.00  0.00    +0.280 C 
ATOM     26  O1  T11     1      95.657 117.193 146.875  0.00  0.00    -0.464 OA
ENDBRANCH  23  26
ENDBRANCH   1  23
TORSDOF 5
ENDMDL
MODEL 2
REMARK VINA RESULT:    -6.625      2.556      4.947
REMARK INTER + INTRA:          -9.264
REMARK INTER:                  -8.366
REMARK INTRA:                  -0.898
REMARK UNBOUND:                -0.703
REMARK  Name = ligands_pdb/TRN_CHEMBL291335.pdb
REMARK  8 active torsions:
REMARK  status: ('A' for Active; 'I' for Inactive)
REMARK    1  A    between atoms: C1_1  and  O1_2
REMARK    2  A    between atoms: O1_2  and  C2_3
REMARK    3  A    between atoms: C2_3  and  C3_5
REMARK    4  A    between atoms: C5_7  and  C6_8
REMARK    5  A    between atoms: C9_11  and  O3_12
REMARK    6  A    between atoms: O3_12  and  C10_13
REMARK    7  A    between atoms: C13_16  and  C14_17
REMARK    8  A    between atoms: N2_23  and  C19_24
REMARK                            x       y       z     vdW  Elec       q    Type
REMARK                         _______ _______ _______ _____ _____    ______ ____
ROOT
ATOM      1  C3  T11     1      95.564 118.911 146.182  0.00  0.00    +0.124 A 
ATOM      2  C4  T11     1      94.317 119.047 145.581  0.00  0.00    +0.031 A 
ATOM      3  C5  T11     1      94.229 119.257 144.226  0.00  0.00    +0.007 A 
ATOM      4  C13 T11     1      95.352 119.321 143.425  0.00  0.00    +0.061 A 
ATOM      5  N2  T11     1      96.625 119.168 143.973  0.00  0.00    -0.310 N 
ATOM      6  C19 T11     1      97.806 119.200 143.078  0.00  0.00    +0.152 C 
ATOM      7  C20 T11     1      96.814 118.981 145.352  0.00  0.00    +0.266 A 
ATOM      8  O4  T11     1      97.942 118.887 145.810  0.00  0.00    -0.267 OA
ENDROOT
BRANCH   3   9
ATOM      9  C6  T11     1      92.885 119.420 143.662  0.00  0.00    -0.016 A 
ATOM     10  C7  T11     1      92.095 118.291 143.384  0.00  0.00    +0.012 A 
ATOM     11  C8  T11     1      90.809 118.441 142.839  0.00  0.00    +0.046 A 
ATOM     12  C9  T11     1      90.298 119.721 142.570  0.00  0.00    +0.120 A 
ATOM     13  C11 T11     1      91.083 120.856 142.855  0.00  0.00    +0.046 A 
ATOM     14  C12 T11     1      92.368 120.703 143.402  0.00  0.00    +0.012 A 
BRANCH  12  15
ATOM     15  O3  T11     1      89.029 119.807 142.034  0.00  0.00    -0.495 OA
ATOM     16  C10 T11     1      88.518 118.874 141.065  0.00  0.00    +0.277 C 
ENDBRANCH  12  15
ENDBRANCH   3   9
BRANCH   4  17
ATOM     17  C14 T11     1      95.157 119.540 141.986  0.00  0.00    +0.017 A 
ATOM     18  C15 T11     1      94.893 118.462 141.122  0.00  0.00    +0.013 A 
ATOM     19  C16 T11     1      94.721 118.721 139.753  0.00  0.00    +0.020 A 
ATOM     20  C17 T11     1      94.816 120.047 139.297  0.00  0.00    +0.111 A 
ATOM     21  N1  T11     1      95.063 121.085 140.121  0.00  0.00    -0.263 NA
ATOM     22  C18 T11     1      95.229 120.835 141.435  0.00  0.00    +0.120 A 
ENDBRANCH   4  17
BRANCH   1  23
ATOM     23  C2  T11     1      95.564 118.715 147.551  0.00  0.00    +0.344 C 
ATOM     24  O2  T11     1      95.580 119.634 148.369  0.00  0.00    -0.245 OA
BRANCH  23  26
ATOM     25  C1  T11     1      96.719 116.841 148.605  0.00  0.00    +0.280 C 
ATOM     26  O1  T11     1      95.544 117.422 148.007  0.00  0.00    -0.464 OA
ENDBRANCH  23  26
ENDBRANCH   1  23
TORSDOF 5
ENDMDL
MODEL 3
REMARK VINA RESULT:    -6.546      1.688      6.210
REMARK INTER + INTRA:          -9.162
REMARK INTER:                  -8.828
REMARK INTRA:                  -0.334
REMARK UNBOUND:                -0.703
REMARK  Name = ligands_pdb/TRN_CHEMBL291335.pdb
REMARK  8 active torsions:
REMARK  status: ('A' for Active; 'I' for Inactive)
REMARK    1  A    between atoms: C1_1  and  O1_2
REMARK    2  A    between atoms: O1_2  and  C2_3
REMARK    3  A    between atoms: C2_3  and  C3_5
REMARK    4  A    between atoms: C5_7  and  C6_8
REMARK    5  A    between atoms: C9_11  and  O3_12
REMARK    6  A    between atoms: O3_12  and  C10_13
REMARK    7  A    between atoms: C13_16  and  C14_17
REMARK    8  A    between atoms: N2_23  and  C19_24
REMARK                            x       y       z     vdW  Elec       q    Type
REMARK                         _______ _______ _______ _____ _____    ______ ____
ROOT
ATOM      1  C3  T11     1      97.733 119.361 139.056  0.00  0.00    +0.124 A 
ATOM      2  C4  T11     1      97.500 118.995 140.377  0.00  0.00    +0.031 A 
ATOM      3  C5  T11     1      96.299 119.302 140.971  0.00  0.00    +0.007 A 
ATOM      4  C13 T11     1      95.295 119.955 140.285  0.00  0.00    +0.061 A 
ATOM      5  N2  T11     1      95.468 120.324 138.952  0.00  0.00    -0.310 N 
ATOM      6  C19 T11     1      94.353 120.987 138.235  0.00  0.00    +0.152 C 
ATOM      7  C20 T11     1      96.672 120.080 138.272  0.00  0.00    +0.266 A 
ATOM      8  O4  T11     1      96.810 120.447 137.116  0.00  0.00    -0.267 OA
ENDROOT
BRANCH   3   9
ATOM      9  C6  T11     1      96.130 118.912 142.375  0.00  0.00    -0.016 A 
ATOM     10  C7  T11     1      95.138 117.982 142.734  0.00  0.00    +0.012 A 
ATOM     11  C8  T11     1      94.968 117.610 144.077  0.00  0.00    +0.046 A 
ATOM     12  C9  T11     1      95.790 118.158 145.075  0.00  0.00    +0.120 A 
ATOM     13  C11 T11     1      96.791 119.083 144.718  0.00  0.00    +0.046 A 
ATOM     14  C12 T11     1      96.961 119.453 143.374  0.00  0.00    +0.012 A 
BRANCH  12  15
ATOM     15  O3  T11     1      95.576 117.755 146.377  0.00  0.00    -0.495 OA
ATOM     16  C10 T11     1      96.192 118.392 147.511  0.00  0.00    +0.277 C 
ENDBRANCH  12  15
ENDBRANCH   3   9
BRANCH   4  17
ATOM     17  C14 T11     1      94.044 120.233 141.002  0.00  0.00    +0.017 A 
ATOM     18  C15 T11     1      93.943 121.324 141.883  0.00  0.00    +0.013 A 
ATOM     19  C16 T11     1      92.729 121.544 142.551  0.00  0.00    +0.020 A 
ATOM     20  C17 T11     1      91.657 120.667 142.313  0.00  0.00    +0.111 A 
ATOM     21  N1  T11     1      91.744 119.622 141.467  0.00  0.00    -0.263 NA
ATOM     22  C18 T11     1      92.912 119.412 140.826  0.00  0.00    +0.120 A 
ENDBRANCH   4  17
BRANCH   1  23
ATOM     23  C2  T11     1      98.971 119.026 138.539  0.00  0.00    +0.344 C 
ATOM     24  O2  T11     1      99.125 118.449 137.463  0.00  0.00    -0.245 OA
BRANCH  23  26
ATOM     25  C1  T11     1     101.234 118.500 139.291  0.00  0.00    +0.280 C 
ATOM     26  O1  T11     1     100.079 119.362 139.275  0.00  0.00    -0.464 OA
ENDBRANCH  23  26
ENDBRANCH   1  23
TORSDOF 5
ENDMDL
MODEL 4
REMARK VINA RESULT:    -6.469      3.388      7.090
REMARK INTER + INTRA:          -9.062
REMARK INTER:                  -8.375
REMARK INTRA:                  -0.687
REMARK UNBOUND:                -0.703
REMARK  Name = ligands_pdb/TRN_CHEMBL291335.pdb
REMARK  8 active torsions:
REMARK  status: ('A' for Active; 'I' for Inactive)
REMARK    1  A    between atoms: C1_1  and  O1_2
REMARK    2  A    between atoms: O1_2  and  C2_3
REMARK    3  A    between atoms: C2_3  and  C3_5
REMARK    4  A    between atoms: C5_7  and  C6_8
REMARK    5  A    between atoms: C9_11  and  O3_12
REMARK    6  A    between atoms: O3_12  and  C10_13
REMARK    7  A    between atoms: C13_16  and  C14_17
REMARK    8  A    between atoms: N2_23  and  C19_24
REMARK                            x       y       z     vdW  Elec       q    Type
REMARK                         _______ _______ _______ _____ _____    ______ ____
ROOT
ATOM      1  C3  T11     1      97.328 120.039 138.252  0.00  0.00    +0.124 A 
ATOM      2  C4  T11     1      95.938 120.044 138.210  0.00  0.00    +0.031 A 
ATOM      3  C5  T11     1      95.217 119.883 139.368  0.00  0.00    +0.007 A 
ATOM      4  C13 T11     1      95.834 119.730 140.594  0.00  0.00    +0.061 A 
ATOM      5  N2  T11     1      97.225 119.740 140.696  0.00  0.00    -0.310 N 
ATOM      6  C19 T11     1      97.852 119.615 142.033  0.00  0.00    +0.152 C 
ATOM      7  C20 T11     1      98.044 119.868 139.563  0.00  0.00    +0.266 A 
ATOM      8  O4  T11     1      99.259 119.836 139.677  0.00  0.00    -0.267 OA
ENDROOT
BRANCH   3   9
ATOM      9  C6  T11     1      93.756 119.870 139.248  0.00  0.00    -0.016 A 
ATOM     10  C7  T11     1      93.049 118.659 139.362  0.00  0.00    +0.012 A 
ATOM     11  C8  T11     1      91.650 118.640 139.242  0.00  0.00    +0.046 A 
ATOM     12  C9  T11     1      90.942 119.830 139.013  0.00  0.00    +0.120 A 
ATOM     13  C11 T11     1      91.644 121.047 138.907  0.00  0.00    +0.046 A 
ATOM     14  C12 T11     1      93.044 121.065 139.029  0.00  0.00    +0.012 A 
BRANCH  12  15
ATOM     15  O3  T11     1      89.568 119.750 138.903  0.00  0.00    -0.495 OA
ATOM     16  C10 T11     1      88.894 118.695 138.196  0.00  0.00    +0.277 C 
ENDBRANCH  12  15
ENDBRANCH   3   9
BRANCH   4  17
ATOM     17  C14 T11     1      94.979 119.572 141.777  0.00  0.00    +0.017 A 
ATOM     18  C15 T11     1      94.436 120.693 142.430  0.00  0.00    +0.013 A 
ATOM     19  C16 T11     1      93.631 120.492 143.562  0.00  0.00    +0.020 A 
ATOM     20  C17 T11     1      93.394 119.178 143.999  0.00  0.00    +0.111 A 
ATOM     21  N1  T11     1      93.906 118.098 143.375  0.00  0.00    -0.263 NA
ATOM     22  C18 T11     1      94.680 118.293 142.288  0.00  0.00    +0.120 A 
ENDBRANCH   4  17
BRANCH   1  23
ATOM     23  C2  T11     1      97.977 120.194 137.041  0.00  0.00    +0.344 C 
ATOM     24  O2  T11     1      97.859 119.410 136.101  0.00  0.00    -0.245 OA
BRANCH  23  26
ATOM     25  C1  T11     1      98.476 122.310 135.929  0.00  0.00    +0.280 C 
ATOM     26  O1  T11     1      98.792 121.288 136.894  0.00  0.00    -0.464 OA
ENDBRANCH  23  26
ENDBRANCH   1  23
TORSDOF 5
ENDMDL
MODEL 5
REMARK VINA RESULT:    -6.338      2.607      6.238
REMARK INTER + INTRA:          -8.894
REMARK INTER:                  -7.972
REMARK INTRA:                  -0.922
REMARK UNBOUND:                -0.703
REMARK  Name = ligands_pdb/TRN_CHEMBL291335.pdb
REMARK  8 active torsions:
REMARK  status: ('A' for Active; 'I' for Inactive)
REMARK    1  A    between atoms: C1_1  and  O1_2
REMARK    2  A    between atoms: O1_2  and  C2_3
REMARK    3  A    between atoms: C2_3  and  C3_5
REMARK    4  A    between atoms: C5_7  and  C6_8
REMARK    5  A    between atoms: C9_11  and  O3_12
REMARK    6  A    between atoms: O3_12  and  C10_13
REMARK    7  A    between atoms: C13_16  and  C14_17
REMARK    8  A    between atoms: N2_23  and  C19_24
REMARK                            x       y       z     vdW  Elec       q    Type
REMARK                         _______ _______ _______ _____ _____    ______ ____
ROOT
ATOM      1  C3  T11     1      90.654 119.825 143.032  0.00  0.00    +0.124 A 
ATOM      2  C4  T11     1      91.602 119.369 143.943  0.00  0.00    +0.031 A 
ATOM      3  C5  T11     1      92.935 119.391 143.613  0.00  0.00    +0.007 A 
ATOM      4  C13 T11     1      93.375 119.873 142.396  0.00  0.00    +0.061 A 
ATOM      5  N2  T11     1      92.470 120.363 141.456  0.00  0.00    -0.310 N 
ATOM      6  C19 T11     1      92.981 120.911 140.177  0.00  0.00    +0.152 C 
ATOM      7  C20 T11     1      91.086 120.351 141.693  0.00  0.00    +0.266 A 
ATOM      8  O4  T11     1      90.313 120.751 140.837  0.00  0.00    -0.267 OA
ENDROOT
BRANCH   3   9
ATOM      9  C6  T11     1      93.878 118.871 144.608  0.00  0.00    -0.016 A 
ATOM     10  C7  T11     1      94.361 119.710 145.628  0.00  0.00    +0.012 A 
ATOM     11  C8  T11     1      95.268 119.218 146.581  0.00  0.00    +0.046 A 
ATOM     12  C9  T11     1      95.697 117.882 146.528  0.00  0.00    +0.120 A 
ATOM     13  C11 T11     1      95.209 117.035 145.513  0.00  0.00    +0.046 A 
ATOM     14  C12 T11     1      94.300 117.529 144.562  0.00  0.00    +0.012 A 
BRANCH  12  15
ATOM     15  O3  T11     1      96.590 117.455 147.490  0.00  0.00    -0.495 OA
ATOM     16  C10 T11     1      96.388 116.272 148.284  0.00  0.00    +0.277 C 
ENDBRANCH  12  15
ENDBRANCH   3   9
BRANCH   4  17
ATOM     17  C14 T11     1      94.821 119.864 142.137  0.00  0.00    +0.017 A 
ATOM     18  C15 T11     1      95.637 120.927 142.564  0.00  0.00    +0.013 A 
ATOM     19  C16 T11     1      97.012 120.877 142.287  0.00  0.00    +0.020 A 
ATOM     20  C17 T11     1      97.523 119.765 141.596  0.00  0.00    +0.111 A 
ATOM     21  N1  T11     1      96.748 118.740 141.189  0.00  0.00    -0.263 NA
ATOM     22  C18 T11     1      95.427 118.790 141.455  0.00  0.00    +0.120 A 
ENDBRANCH   4  17
BRANCH   1  23
ATOM     23  C2  T11     1      89.334 119.756 143.438  0.00  0.00    +0.344 C 
ATOM     24  O2  T11     1      88.521 118.956 142.976  0.00  0.00    -0.245 OA
BRANCH  23  26
ATOM     25  C1  T11     1      88.861 122.046 144.141  0.00  0.00    +0.280 C 
ATOM     26  O1  T11     1      88.922 120.632 144.410  0.00  0.00    -0.464 OA
ENDBRANCH  23  26
ENDBRANCH   1  23
TORSDOF 5
ENDMDL
MODEL 6
REMARK VINA RESULT:    -6.317      1.689      6.313
REMARK INTER + INTRA:          -8.866
REMARK INTER:                  -8.160
REMARK INTRA:                  -0.706
REMARK UNBOUND:                -0.703
REMARK  Name = ligands_pdb/TRN_CHEMBL291335.pdb
REMARK  8 active torsions:
REMARK  status: ('A' for Active; 'I' for Inactive)
REMARK    1  A    between atoms: C1_1  and  O1_2
REMARK    2  A    between atoms: O1_2  and  C2_3
REMARK    3  A    between atoms: C2_3  and  C3_5
REMARK    4  A    between atoms: C5_7  and  C6_8
REMARK    5  A    between atoms: C9_11  and  O3_12
REMARK    6  A    between atoms: O3_12  and  C10_13
REMARK    7  A    between atoms: C13_16  and  C14_17
REMARK    8  A    between atoms: N2_23  and  C19_24
REMARK                            x       y       z     vdW  Elec       q    Type
REMARK                         _______ _______ _______ _____ _____    ______ ____
ROOT
ATOM      1  C3  T11     1      96.623 120.281 139.401  0.00  0.00    +0.124 A 
ATOM      2  C4  T11     1      96.470 119.912 140.733  0.00  0.00    +0.031 A 
ATOM      3  C5  T11     1      95.217 119.868 141.293  0.00  0.00    +0.007 A 
ATOM      4  C13 T11     1      94.083 120.167 140.563  0.00  0.00    +0.061 A 
ATOM      5  N2  T11     1      94.178 120.521 139.217  0.00  0.00    -0.310 N 
ATOM      6  C19 T11     1      92.937 120.794 138.454  0.00  0.00    +0.152 C 
ATOM      7  C20 T11     1      95.419 120.622 138.569  0.00  0.00    +0.266 A 
ATOM      8  O4  T11     1      95.474 120.970 137.400  0.00  0.00    -0.267 OA
ENDROOT
BRANCH   3   9
ATOM      9  C6  T11     1      95.130 119.498 142.709  0.00  0.00    -0.016 A 
ATOM     10  C7  T11     1      95.325 118.162 143.102  0.00  0.00    +0.012 A 
ATOM     11  C8  T11     1      95.238 117.801 144.456  0.00  0.00    +0.046 A 
ATOM     12  C9  T11     1      94.962 118.771 145.433  0.00  0.00    +0.120 A 
ATOM     13  C11 T11     1      94.776 120.113 145.045  0.00  0.00    +0.046 A 
ATOM     14  C12 T11     1      94.865 120.473 143.690  0.00  0.00    +0.012 A 
BRANCH  12  15
ATOM     15  O3  T11     1      94.888 118.358 146.748  0.00  0.00    -0.495 OA
ATOM     16  C10 T11     1      96.047 118.069 147.550  0.00  0.00    +0.277 C 
ENDBRANCH  12  15
ENDBRANCH   3   9
BRANCH   4  17
ATOM     17  C14 T11     1      92.786 120.085 141.246  0.00  0.00    +0.017 A 
ATOM     18  C15 T11     1      92.213 121.220 141.845  0.00  0.00    +0.013 A 
ATOM     19  C16 T11     1      90.975 121.091 142.493  0.00  0.00    +0.020 A 
ATOM     20  C17 T11     1      90.352 119.831 142.517  0.00  0.00    +0.111 A 
ATOM     21  N1  T11     1      90.893 118.739 141.940  0.00  0.00    -0.263 NA
ATOM     22  C18 T11     1      92.083 118.866 141.319  0.00  0.00    +0.120 A 
ENDBRANCH   4  17
BRANCH   1  23
ATOM     23  C2  T11     1      97.919 120.311 138.919  0.00  0.00    +0.344 C 
ATOM     24  O2  T11     1      98.745 121.163 139.244  0.00  0.00    -0.245 OA
BRANCH  23  26
ATOM     25  C1  T11     1      98.609 119.663 136.669  0.00  0.00    +0.280 C 
ATOM     26  O1  T11     1      98.290 119.332 138.034  0.00  0.00    -0.464 OA
ENDBRANCH  23  26
ENDBRANCH   1  23
TORSDOF 5
ENDMDL
MODEL 7
REMARK VINA RESULT:    -6.287      2.826      6.154
REMARK INTER + INTRA:          -8.827
REMARK INTER:                  -7.892
REMARK INTRA:                  -0.935
REMARK UNBOUND:                -0.703
REMARK  Name = ligands_pdb/TRN_CHEMBL291335.pdb
REMARK  8 active torsions:
REMARK  status: ('A' for Active; 'I' for Inactive)
REMARK    1  A    between atoms: C1_1  and  O1_2
REMARK    2  A    between atoms: O1_2  and  C2_3
REMARK    3  A    between atoms: C2_3  and  C3_5
REMARK    4  A    between atoms: C5_7  and  C6_8
REMARK    5  A    between atoms: C9_11  and  O3_12
REMARK    6  A    between atoms: O3_12  and  C10_13
REMARK    7  A    between atoms: C13_16  and  C14_17
REMARK    8  A    between atoms: N2_23  and  C19_24
REMARK                            x       y       z     vdW  Elec       q    Type
REMARK                         _______ _______ _______ _____ _____    ______ ____
ROOT
ATOM      1  C3  T11     1      90.822 118.531 142.335  0.00  0.00    +0.124 A 
ATOM      2  C4  T11     1      91.727 118.390 143.382  0.00  0.00    +0.031 A 
ATOM      3  C5  T11     1      93.030 118.794 143.220  0.00  0.00    +0.007 A 
ATOM      4  C13 T11     1      93.475 119.359 142.041  0.00  0.00    +0.061 A 
ATOM      5  N2  T11     1      92.604 119.544 140.968  0.00  0.00    -0.310 N 
ATOM      6  C19 T11     1      93.105 120.192 139.733  0.00  0.00    +0.152 C 
ATOM      7  C20 T11     1      91.262 119.134 141.031  0.00  0.00    +0.266 A 
ATOM      8  O4  T11     1      90.531 119.274 140.064  0.00  0.00    -0.267 OA
ENDROOT
BRANCH   3   9
ATOM      9  C6  T11     1      93.938 118.591 144.353  0.00  0.00    -0.016 A 
ATOM     10  C7  T11     1      94.095 119.600 145.320  0.00  0.00    +0.012 A 
ATOM     11  C8  T11     1      94.967 119.413 146.405  0.00  0.00    +0.046 A 
ATOM     12  C9  T11     1      95.687 118.215 146.538  0.00  0.00    +0.120 A 
ATOM     13  C11 T11     1      95.526 117.198 145.577  0.00  0.00    +0.046 A 
ATOM     14  C12 T11     1      94.651 117.386 144.493  0.00  0.00    +0.012 A 
BRANCH  12  15
ATOM     15  O3  T11     1      96.530 118.088 147.624  0.00  0.00    -0.495 OA
ATOM     16  C10 T11     1      96.437 118.918 148.795  0.00  0.00    +0.277 C 
ENDBRANCH  12  15
ENDBRANCH   3   9
BRANCH   4  17
ATOM     17  C14 T11     1      94.883 119.767 141.965  0.00  0.00    +0.017 A 
ATOM     18  C15 T11     1      95.879 118.854 141.573  0.00  0.00    +0.013 A 
ATOM     19  C16 T11     1      97.212 119.289 141.524  0.00  0.00    +0.020 A 
ATOM     20  C17 T11     1      97.503 120.621 141.863  0.00  0.00    +0.111 A 
ATOM     21  N1  T11     1      96.554 121.503 142.235  0.00  0.00    -0.263 NA
ATOM     22  C18 T11     1      95.273 121.084 142.283  0.00  0.00    +0.120 A 
ENDBRANCH   4  17
BRANCH   1  23
ATOM     23  C2  T11     1      89.534 118.088 142.577  0.00  0.00    +0.344 C 
ATOM     24  O2  T11     1      88.576 118.841 142.745  0.00  0.00    -0.245 OA
BRANCH  23  26
ATOM     25  C1  T11     1      89.144 115.976 141.415  0.00  0.00    +0.280 C 
ATOM     26  O1  T11     1      89.328 116.733 142.627  0.00  0.00    -0.464 OA
ENDBRANCH  23  26
ENDBRANCH   1  23
TORSDOF 5
ENDMDL
MODEL 8
REMARK VINA RESULT:    -5.959      3.540      6.214
REMARK INTER + INTRA:          -8.403
REMARK INTER:                  -7.593
REMARK INTRA:                  -0.810
REMARK UNBOUND:                -0.703
REMARK  Name = ligands_pdb/TRN_CHEMBL291335.pdb
REMARK  8 active torsions:
REMARK  status: ('A' for Active; 'I' for Inactive)
REMARK    1  A    between atoms: C1_1  and  O1_2
REMARK    2  A    between atoms: O1_2  and  C2_3
REMARK    3  A    between atoms: C2_3  and  C3_5
REMARK    4  A    between atoms: C5_7  and  C6_8
REMARK    5  A    between atoms: C9_11  and  O3_12
REMARK    6  A    between atoms: O3_12  and  C10_13
REMARK    7  A    between atoms: C13_16  and  C14_17
REMARK    8  A    between atoms: N2_23  and  C19_24
REMARK                            x       y       z     vdW  Elec       q    Type
REMARK                         _______ _______ _______ _____ _____    ______ ____
ROOT
ATOM      1  C3  T11     1      90.727 119.753 139.077  0.00  0.00    +0.124 A 
ATOM      2  C4  T11     1      92.110 119.614 139.030  0.00  0.00    +0.031 A 
ATOM      3  C5  T11     1      92.832 119.559 140.198  0.00  0.00    +0.007 A 
ATOM      4  C13 T11     1      92.221 119.622 141.435  0.00  0.00    +0.061 A 
ATOM      5  N2  T11     1      90.835 119.739 141.538  0.00  0.00    -0.310 N 
ATOM      6  C19 T11     1      90.210 119.761 142.882  0.00  0.00    +0.152 C 
ATOM      7  C20 T11     1      90.019 119.833 140.400  0.00  0.00    +0.266 A 
ATOM      8  O4  T11     1      88.812 119.973 140.520  0.00  0.00    -0.267 OA
ENDROOT
BRANCH   3   9
ATOM      9  C6  T11     1      94.288 119.440 140.076  0.00  0.00    -0.016 A 
ATOM     10  C7  T11     1      94.886 118.171 139.977  0.00  0.00    +0.012 A 
ATOM     11  C8  T11     1      96.281 118.051 139.866  0.00  0.00    +0.046 A 
ATOM     12  C9  T11     1      97.092 119.196 139.848  0.00  0.00    +0.120 A 
ATOM     13  C11 T11     1      96.497 120.470 139.938  0.00  0.00    +0.046 A 
ATOM     14  C12 T11     1      95.101 120.589 140.047  0.00  0.00    +0.012 A 
BRANCH  12  15
ATOM     15  O3  T11     1      98.457 119.016 139.738  0.00  0.00    -0.495 OA
ATOM     16  C10 T11     1      99.117 118.735 138.491  0.00  0.00    +0.277 C 
ENDBRANCH  12  15
ENDBRANCH   3   9
BRANCH   4  17
ATOM     17  C14 T11     1      93.076 119.548 142.626  0.00  0.00    +0.017 A 
ATOM     18  C15 T11     1      93.626 120.711 143.193  0.00  0.00    +0.013 A 
ATOM     19  C16 T11     1      94.443 120.589 144.327  0.00  0.00    +0.020 A 
ATOM     20  C17 T11     1      94.680 119.308 144.856  0.00  0.00    +0.111 A 
ATOM     21  N1  T11     1      94.153 118.189 144.321  0.00  0.00    -0.263 NA
ATOM     22  C18 T11     1      93.368 118.309 143.231  0.00  0.00    +0.120 A 
ENDBRANCH   4  17
BRANCH   1  23
ATOM     23  C2  T11     1      90.077 119.813 137.857  0.00  0.00    +0.344 C 
ATOM     24  O2  T11     1      90.232 120.727 137.048  0.00  0.00    -0.245 OA
BRANCH  23  26
ATOM     25  C1  T11     1      88.414 118.850 136.351  0.00  0.00    +0.280 C 
ATOM     26  O1  T11     1      89.218 118.790 137.544  0.00  0.00    -0.464 OA
ENDBRANCH  23  26
ENDBRANCH   1  23
TORSDOF 5
ENDMDL
MODEL 9
REMARK VINA RESULT:    -5.887      3.353      7.141
REMARK INTER + INTRA:          -8.310
REMARK INTER:                  -7.432
REMARK INTRA:                  -0.878
REMARK UNBOUND:                -0.703
REMARK  Name = ligands_pdb/TRN_CHEMBL291335.pdb
REMARK  8 active torsions:
REMARK  status: ('A' for Active; 'I' for Inactive)
REMARK    1  A    between atoms: C1_1  and  O1_2
REMARK    2  A    between atoms: O1_2  and  C2_3
REMARK    3  A    between atoms: C2_3  and  C3_5
REMARK    4  A    between atoms: C5_7  and  C6_8
REMARK    5  A    between atoms: C9_11  and  O3_12
REMARK    6  A    between atoms: O3_12  and  C10_13
REMARK    7  A    between atoms: C13_16  and  C14_17
REMARK    8  A    between atoms: N2_23  and  C19_24
REMARK                            x       y       z     vdW  Elec       q    Type
REMARK                         _______ _______ _______ _____ _____    ______ ____
ROOT
ATOM      1  C3  T11     1      96.366 121.184 138.492  0.00  0.00    +0.124 A 
ATOM      2  C4  T11     1      95.027 120.828 138.611  0.00  0.00    +0.031 A 
ATOM      3  C5  T11     1      94.538 120.397 139.821  0.00  0.00    +0.007 A 
ATOM      4  C13 T11     1      95.339 120.320 140.943  0.00  0.00    +0.061 A 
ATOM      5  N2  T11     1      96.683 120.686 140.884  0.00  0.00    -0.310 N 
ATOM      6  C19 T11     1      97.502 120.631 142.118  0.00  0.00    +0.152 C 
ATOM      7  C20 T11     1      97.277 121.109 139.684  0.00  0.00    +0.266 A 
ATOM      8  O4  T11     1      98.465 121.388 139.653  0.00  0.00    -0.267 OA
ENDROOT
BRANCH   3   9
ATOM      9  C6  T11     1      93.124 120.011 139.870  0.00  0.00    -0.016 A 
ATOM     10  C7  T11     1      92.146 120.958 140.224  0.00  0.00    +0.012 A 
ATOM     11  C8  T11     1      90.792 120.593 140.278  0.00  0.00    +0.046 A 
ATOM     12  C9  T11     1      90.399 119.279 139.974  0.00  0.00    +0.120 A 
ATOM     13  C11 T11     1      91.374 118.330 139.610  0.00  0.00    +0.046 A 
ATOM     14  C12 T11     1      92.729 118.698 139.554  0.00  0.00    +0.012 A 
BRANCH  12  15
ATOM     15  O3  T11     1      89.053 118.978 140.044  0.00  0.00    -0.495 OA
ATOM     16  C10 T11     1      88.473 118.208 141.112  0.00  0.00    +0.277 C 
ENDBRANCH  12  15
ENDBRANCH   3   9
BRANCH   4  17
ATOM     17  C14 T11     1      94.724 119.856 142.193  0.00  0.00    +0.017 A 
ATOM     18  C15 T11     1      94.651 118.484 142.495  0.00  0.00    +0.013 A 
ATOM     19  C16 T11     1      94.047 118.088 143.698  0.00  0.00    +0.020 A 
ATOM     20  C17 T11     1      93.541 119.077 144.559  0.00  0.00    +0.111 A 
ATOM     21  N1  T11     1      93.612 120.394 144.279  0.00  0.00    -0.263 NA
ATOM     22  C18 T11     1      94.192 120.772 143.122  0.00  0.00    +0.120 A 
ENDBRANCH   4  17
BRANCH   1  23
ATOM     23  C2  T11     1      96.780 121.594 137.238  0.00  0.00    +0.344 C 
ATOM     24  O2  T11     1      97.596 120.977 136.555  0.00  0.00    -0.245 OA
BRANCH  23  26
ATOM     25  C1  T11     1      96.886 124.019 136.979  0.00  0.00    +0.280 C 
ATOM     26  O1  T11     1      96.242 122.753 136.739  0.00  0.00    -0.464 OA
ENDBRANCH  23  26
ENDBRANCH   1  23
TORSDOF 5
ENDMDL
MODEL 10
REMARK VINA RESULT:    -5.857      2.470      4.665
REMARK INTER + INTRA:          -8.271
REMARK INTER:                  -7.531
REMARK INTRA:                  -0.741
REMARK UNBOUND:                -0.703
REMARK  Name = ligands_pdb/TRN_CHEMBL291335.pdb
REMARK  8 active torsions:
REMARK  status: ('A' for Active; 'I' for Inactive)
REMARK    1  A    between atoms: C1_1  and  O1_2
REMARK    2  A    between atoms: O1_2  and  C2_3
REMARK    3  A    between atoms: C2_3  and  C3_5
REMARK    4  A    between atoms: C5_7  and  C6_8
REMARK    5  A    between atoms: C9_11  and  O3_12
REMARK    6  A    between atoms: O3_12  and  C10_13
REMARK    7  A    between atoms: C13_16  and  C14_17
REMARK    8  A    between atoms: N2_23  and  C19_24
REMARK                            x       y       z     vdW  Elec       q    Type
REMARK                         _______ _______ _______ _____ _____    ______ ____
ROOT
ATOM      1  C3  T11     1      94.982 119.175 144.087  0.00  0.00    +0.124 A 
ATOM      2  C4  T11     1      94.120 119.450 143.032  0.00  0.00    +0.031 A 
ATOM      3  C5  T11     1      94.627 119.704 141.780  0.00  0.00    +0.007 A 
ATOM      4  C13 T11     1      95.984 119.680 141.528  0.00  0.00    +0.061 A 
ATOM      5  N2  T11     1      96.892 119.388 142.545  0.00  0.00    -0.310 N 
ATOM      6  C19 T11     1      98.339 119.329 142.228  0.00  0.00    +0.152 C 
ATOM      7  C20 T11     1      96.467 119.145 143.861  0.00  0.00    +0.266 A 
ATOM      8  O4  T11     1      97.286 118.929 144.741  0.00  0.00    -0.267 OA
ENDROOT
BRANCH   3   9
ATOM      9  C6  T11     1      93.664 120.014 140.720  0.00  0.00    -0.016 A 
ATOM     10  C7  T11     1      93.096 118.976 139.958  0.00  0.00    +0.012 A 
ATOM     11  C8  T11     1      92.177 119.267 138.937  0.00  0.00    +0.046 A 
ATOM     12  C9  T11     1      91.810 120.596 138.670  0.00  0.00    +0.120 A 
ATOM     13  C11 T11     1      92.369 121.638 139.437  0.00  0.00    +0.046 A 
ATOM     14  C12 T11     1      93.288 121.345 140.459  0.00  0.00    +0.012 A 
BRANCH  12  15
ATOM     15  O3  T11     1      90.903 120.822 137.654  0.00  0.00    -0.495 OA
ATOM     16  C10 T11     1      89.690 120.065 137.498  0.00  0.00    +0.277 C 
ENDBRANCH  12  15
ENDBRANCH   3   9
BRANCH   4  17
ATOM     17  C14 T11     1      96.431 119.957 140.157  0.00  0.00    +0.017 A 
ATOM     18  C15 T11     1      96.672 121.275 139.729  0.00  0.00    +0.013 A 
ATOM     19  C16 T11     1      97.090 121.490 138.406  0.00  0.00    +0.020 A 
ATOM     20  C17 T11     1      97.256 120.380 137.560  0.00  0.00    +0.111 A 
ATOM     21  N1  T11     1      97.033 119.114 137.964  0.00  0.00    -0.263 NA
ATOM     22  C18 T11     1      96.630 118.909 139.235  0.00  0.00    +0.120 A 
ENDBRANCH   4  17
BRANCH   1  23
ATOM     23  C2  T11     1      94.391 118.943 145.316  0.00  0.00    +0.344 C 
ATOM     24  O2  T11     1      93.478 118.136 145.489  0.00  0.00    -0.245 OA
BRANCH  23  26
ATOM     25  C1  T11     1      95.268 118.979 147.594  0.00  0.00    +0.280 C 
ATOM     26  O1  T11     1      94.857 119.656 146.390  0.00  0.00    -0.464 OA
ENDBRANCH  23  26
ENDBRANCH   1  23
TORSDOF 5
ENDMDL
