MODEL 1
REMARK VINA RESULT:    -7.943      0.000      0.000
REMARK INTER + INTRA:         -10.635
REMARK INTER:                  -9.800
REMARK INTRA:                  -0.835
REMARK UNBOUND:                -0.835
REMARK  Name = ligands_pdb/TRN_CHEMBL178738.pdb
REMARK  4 active torsions:
REMARK  status: ('A' for Active; 'I' for Inactive)
REMARK    1  A    between atoms: C4_4  and  C5_5
REMARK    2  A    between atoms: C5_5  and  O1_6
REMARK    3  A    between atoms: O1_6  and  C6_7
REMARK    4  A    between atoms: C7_10  and  C8_11
REMARK                            x       y       z     vdW  Elec       q    Type
REMARK                         _______ _______ _______ _____ _____    ______ ____
ROOT
ATOM      1  C6  T08     1      94.364 121.683 138.683  0.00  0.00    +0.237 A 
ATOM      2  N1  T08     1      93.061 121.324 138.578  0.00  0.00    -0.125 NA
ATOM      3  N2  T08     1      92.736 120.056 138.930  0.00  0.00    -0.193 N 
ATOM      4  C7  T08     1      91.559 119.361 138.953  0.00  0.00    +0.158 A 
ATOM      5  N3  T08     1      91.760 118.071 139.423  0.00  0.00    -0.132 NA
ATOM      6  N4  T08     1      93.037 117.911 139.694  0.00  0.00    -0.128 NA
ATOM      7  C11 T08     1      93.592 119.104 139.391  0.00  0.00    +0.182 A 
ATOM      8  C12 T08     1      94.945 119.458 139.506  0.00  0.00    +0.010 A 
ATOM      9  C13 T08     1      95.333 120.762 139.145  0.00  0.00    +0.026 A 
ATOM     10  C14 T08     1      96.828 121.029 139.320  0.00  0.00    +0.025 C 
ATOM     11  C15 T08     1      97.582 119.974 138.460  0.00  0.00    +0.009 C 
ATOM     12  C16 T08     1      97.145 118.526 138.861  0.00  0.00    +0.009 C 
ATOM     13  C17 T08     1      96.086 118.573 140.000  0.00  0.00    +0.023 C 
ATOM     14  C18 T08     1      96.728 119.304 141.214  0.00  0.00    +0.009 C 
ATOM     15  C19 T08     1      97.165 120.751 140.813  0.00  0.00    +0.009 C 
ENDROOT
BRANCH   4  16
ATOM     16  C8  T08     1      90.232 119.867 138.563  0.00  0.00    +0.059 C 
ATOM     17  C9  T08     1      89.917 120.054 137.097  0.00  0.00    +0.012 C 
ATOM     18  C10 T08     1      89.253 118.945 137.874  0.00  0.00    +0.012 C 
ENDBRANCH   4  16
BRANCH   1  19
ATOM     19  O1  T08     1      94.773 122.956 138.346  0.00  0.00    -0.469 OA
BRANCH  19  20
ATOM     20  C5  T08     1      95.174 123.296 137.002  0.00  0.00    +0.286 C 
BRANCH  20  24
ATOM     21  C1  T08     1      99.434 123.439 136.600  0.00  0.00    +0.020 A 
ATOM     22  C2  T08     1      98.834 124.353 137.482  0.00  0.00    +0.003 A 
ATOM     23  C3  T08     1      97.439 124.324 137.633  0.00  0.00    +0.027 A 
ATOM     24  C4  T08     1      96.691 123.375 136.902  0.00  0.00    +0.079 A 
ATOM     25  N5  T08     1      97.272 122.502 136.050  0.00  0.00    -0.256 NA
ATOM     26  C20 T08     1      98.613 122.535 135.905  0.00  0.00    +0.111 A 
ENDBRANCH  20  24
ENDBRANCH  19  20
ENDBRANCH   1  19
TORSDOF 4
ENDMDL
MODEL 2
REMARK VINA RESULT:    -7.901      4.830      7.152
REMARK INTER + INTRA:         -10.583
REMARK INTER:                 -10.595
REMARK INTRA:                   0.012
REMARK UNBOUND:                -0.835
REMARK  Name = ligands_pdb/TRN_CHEMBL178738.pdb
REMARK  4 active torsions:
REMARK  status: ('A' for Active; 'I' for Inactive)
REMARK    1  A    between atoms: C4_4  and  C5_5
REMARK    2  A    between atoms: C5_5  and  O1_6
REMARK    3  A    between atoms: O1_6  and  C6_7
REMARK    4  A    between atoms: C7_10  and  C8_11
REMARK                            x       y       z     vdW  Elec       q    Type
REMARK                         _______ _______ _______ _____ _____    ______ ____
ROOT
ATOM      1  C6  T08     1      96.555 118.980 143.391  0.00  0.00    +0.237 A 
ATOM      2  N1  T08     1      96.933 118.669 144.656  0.00  0.00    -0.125 NA
ATOM      3  N2  T08     1      95.994 118.772 145.628  0.00  0.00    -0.193 N 
ATOM      4  C7  T08     1      96.012 118.549 146.976  0.00  0.00    +0.158 A 
ATOM      5  N3  T08     1      94.761 118.787 147.529  0.00  0.00    -0.132 NA
ATOM      6  N4  T08     1      93.939 119.168 146.575  0.00  0.00    -0.128 NA
ATOM      7  C11 T08     1      94.698 119.151 145.459  0.00  0.00    +0.182 A 
ATOM      8  C12 T08     1      94.289 119.477 144.156  0.00  0.00    +0.010 A 
ATOM      9  C13 T08     1      95.231 119.392 143.113  0.00  0.00    +0.026 A 
ATOM     10  C14 T08     1      94.665 119.764 141.743  0.00  0.00    +0.025 C 
ATOM     11  C15 T08     1      94.105 121.211 141.861  0.00  0.00    +0.009 C 
ATOM     12  C16 T08     1      93.062 121.303 143.023  0.00  0.00    +0.009 C 
ATOM     13  C17 T08     1      92.897 119.921 143.716  0.00  0.00    +0.023 C 
ATOM     14  C18 T08     1      92.422 118.905 142.638  0.00  0.00    +0.009 C 
ATOM     15  C19 T08     1      93.464 118.813 141.476  0.00  0.00    +0.009 C 
ENDROOT
BRANCH   4  16
ATOM     16  C8  T08     1      97.163 118.101 147.779  0.00  0.00    +0.059 C 
ATOM     17  C9  T08     1      97.115 118.249 149.282  0.00  0.00    +0.012 C 
ATOM     18  C10 T08     1      97.032 116.879 148.657  0.00  0.00    +0.012 C 
ENDBRANCH   4  16
BRANCH   1  19
ATOM     19  O1  T08     1      97.452 118.896 142.347  0.00  0.00    -0.469 OA
BRANCH  19  20
ATOM     20  C5  T08     1      97.847 120.058 141.589  0.00  0.00    +0.286 C 
BRANCH  20  24
ATOM     21  C1  T08     1      98.742 118.925 137.558  0.00  0.00    +0.020 A 
ATOM     22  C2  T08     1      97.448 119.401 137.827  0.00  0.00    +0.003 A 
ATOM     23  C3  T08     1      97.132 119.781 139.141  0.00  0.00    +0.027 A 
ATOM     24  C4  T08     1      98.123 119.680 140.140  0.00  0.00    +0.079 A 
ATOM     25  N5  T08     1      99.364 119.215 139.878  0.00  0.00    -0.256 NA
ATOM     26  C20 T08     1      99.665 118.848 138.615  0.00  0.00    +0.111 A 
ENDBRANCH  20  24
ENDBRANCH  19  20
ENDBRANCH   1  19
TORSDOF 4
ENDMDL
MODEL 3
REMARK VINA RESULT:    -7.627      3.384      5.758
REMARK INTER + INTRA:         -10.246
REMARK INTER:                  -9.193
REMARK INTRA:                  -1.053
REMARK UNBOUND:                -0.835
REMARK  Name = ligands_pdb/TRN_CHEMBL178738.pdb
REMARK  4 active torsions:
REMARK  status: ('A' for Active; 'I' for Inactive)
REMARK    1  A    between atoms: C4_4  and  C5_5
REMARK    2  A    between atoms: C5_5  and  O1_6
REMARK    3  A    between atoms: O1_6  and  C6_7
REMARK    4  A    between atoms: C7_10  and  C8_11
REMARK                            x       y       z     vdW  Elec       q    Type
REMARK                         _______ _______ _______ _____ _____    ______ ____
ROOT
ATOM      1  C6  T08     1      95.717 120.705 142.195  0.00  0.00    +0.237 A 
ATOM      2  N1  T08     1      96.021 120.136 143.387  0.00  0.00    -0.125 NA
ATOM      3  N2  T08     1      95.174 119.187 143.856  0.00  0.00    -0.193 N 
ATOM      4  C7  T08     1      95.157 118.420 144.987  0.00  0.00    +0.158 A 
ATOM      5  N3  T08     1      94.060 117.570 144.988  0.00  0.00    -0.132 NA
ATOM      6  N4  T08     1      93.362 117.775 143.892  0.00  0.00    -0.128 NA
ATOM      7  C11 T08     1      94.045 118.740 143.240  0.00  0.00    +0.182 A 
ATOM      8  C12 T08     1      93.715 119.320 142.005  0.00  0.00    +0.010 A 
ATOM      9  C13 T08     1      94.561 120.314 141.480  0.00  0.00    +0.026 A 
ATOM     10  C14 T08     1      94.101 120.862 140.130  0.00  0.00    +0.025 C 
ATOM     11  C15 T08     1      92.661 121.416 140.331  0.00  0.00    +0.009 C 
ATOM     12  C16 T08     1      91.724 120.309 140.918  0.00  0.00    +0.009 C 
ATOM     13  C17 T08     1      92.512 118.984 141.127  0.00  0.00    +0.023 C 
ATOM     14  C18 T08     1      93.075 118.544 139.745  0.00  0.00    +0.009 C 
ATOM     15  C19 T08     1      94.010 119.651 139.157  0.00  0.00    +0.009 C 
ENDROOT
BRANCH   4  16
ATOM     16  C8  T08     1      96.148 118.438 146.076  0.00  0.00    +0.059 C 
ATOM     17  C9  T08     1      95.715 118.865 147.460  0.00  0.00    +0.012 C 
ATOM     18  C10 T08     1      96.056 117.421 147.190  0.00  0.00    +0.012 C 
ENDBRANCH   4  16
BRANCH   1  19
ATOM     19  O1  T08     1      96.532 121.675 141.650  0.00  0.00    -0.469 OA
BRANCH  19  20
ATOM     20  C5  T08     1      97.836 121.364 141.118  0.00  0.00    +0.286 C 
BRANCH  20  24
ATOM     21  C1  T08     1      97.484 119.513 137.273  0.00  0.00    +0.020 A 
ATOM     22  C2  T08     1      97.828 118.692 138.360  0.00  0.00    +0.003 A 
ATOM     23  C3  T08     1      97.946 119.276 139.631  0.00  0.00    +0.027 A 
ATOM     24  C4  T08     1      97.709 120.660 139.773  0.00  0.00    +0.079 A 
ATOM     25  N5  T08     1      97.385 121.447 138.724  0.00  0.00    -0.256 NA
ATOM     26  C20 T08     1      97.275 120.884 137.503  0.00  0.00    +0.111 A 
ENDBRANCH  20  24
ENDBRANCH  19  20
ENDBRANCH   1  19
TORSDOF 4
ENDMDL
MODEL 4
REMARK VINA RESULT:    -7.509      2.620      6.098
REMARK INTER + INTRA:         -10.100
REMARK INTER:                  -9.086
REMARK INTRA:                  -1.013
REMARK UNBOUND:                -0.835
REMARK  Name = ligands_pdb/TRN_CHEMBL178738.pdb
REMARK  4 active torsions:
REMARK  status: ('A' for Active; 'I' for Inactive)
REMARK    1  A    between atoms: C4_4  and  C5_5
REMARK    2  A    between atoms: C5_5  and  O1_6
REMARK    3  A    between atoms: O1_6  and  C6_7
REMARK    4  A    between atoms: C7_10  and  C8_11
REMARK                            x       y       z     vdW  Elec       q    Type
REMARK                         _______ _______ _______ _____ _____    ______ ____
ROOT
ATOM      1  C6  T08     1      95.323 121.411 138.152  0.00  0.00    +0.237 A 
ATOM      2  N1  T08     1      95.151 122.727 137.876  0.00  0.00    -0.125 NA
ATOM      3  N2  T08     1      96.262 123.456 137.607  0.00  0.00    -0.193 N 
ATOM      4  C7  T08     1      96.469 124.771 137.296  0.00  0.00    +0.158 A 
ATOM      5  N3  T08     1      97.819 125.020 137.089  0.00  0.00    -0.132 NA
ATOM      6  N4  T08     1      98.490 123.903 137.270  0.00  0.00    -0.128 NA
ATOM      7  C11 T08     1      97.541 122.992 137.576  0.00  0.00    +0.182 A 
ATOM      8  C12 T08     1      97.738 121.632 137.861  0.00  0.00    +0.010 A 
ATOM      9  C13 T08     1      96.615 120.835 138.153  0.00  0.00    +0.026 A 
ATOM     10  C14 T08     1      96.957 119.373 138.438  0.00  0.00    +0.025 C 
ATOM     11  C15 T08     1      97.962 119.364 139.626  0.00  0.00    +0.009 C 
ATOM     12  C16 T08     1      99.207 120.254 139.298  0.00  0.00    +0.009 C 
ATOM     13  C17 T08     1      99.068 120.883 137.883  0.00  0.00    +0.023 C 
ATOM     14  C18 T08     1      98.945 119.720 136.857  0.00  0.00    +0.009 C 
ATOM     15  C19 T08     1      97.702 118.830 137.184  0.00  0.00    +0.009 C 
ENDROOT
BRANCH   4  16
ATOM     16  C8  T08     1      95.440 125.816 137.166  0.00  0.00    +0.059 C 
ATOM     17  C9  T08     1      95.386 126.928 138.188  0.00  0.00    +0.012 C 
ATOM     18  C10 T08     1      95.843 127.220 136.781  0.00  0.00    +0.012 C 
ENDBRANCH   4  16
BRANCH   1  19
ATOM     19  O1  T08     1      94.242 120.603 138.433  0.00  0.00    -0.469 OA
BRANCH  19  20
ATOM     20  C5  T08     1      93.522 120.702 139.679  0.00  0.00    +0.286 C 
BRANCH  20  24
ATOM     21  C1  T08     1      95.965 119.502 142.984  0.00  0.00    +0.020 A 
ATOM     22  C2  T08     1      95.314 118.491 142.256  0.00  0.00    +0.003 A 
ATOM     23  C3  T08     1      94.510 118.860 141.167  0.00  0.00    +0.027 A 
ATOM     24  C4  T08     1      94.390 120.227 140.836  0.00  0.00    +0.079 A 
ATOM     25  N5  T08     1      95.012 121.196 141.543  0.00  0.00    -0.256 NA
ATOM     26  C20 T08     1      95.782 120.839 142.592  0.00  0.00    +0.111 A 
ENDBRANCH  20  24
ENDBRANCH  19  20
ENDBRANCH   1  19
TORSDOF 4
ENDMDL
MODEL 5
REMARK VINA RESULT:    -7.369      4.912      8.455
REMARK INTER + INTRA:          -9.927
REMARK INTER:                  -9.483
REMARK INTRA:                  -0.445
REMARK UNBOUND:                -0.835
REMARK  Name = ligands_pdb/TRN_CHEMBL178738.pdb
REMARK  4 active torsions:
REMARK  status: ('A' for Active; 'I' for Inactive)
REMARK    1  A    between atoms: C4_4  and  C5_5
REMARK    2  A    between atoms: C5_5  and  O1_6
REMARK    3  A    between atoms: O1_6  and  C6_7
REMARK    4  A    between atoms: C7_10  and  C8_11
REMARK                            x       y       z     vdW  Elec       q    Type
REMARK                         _______ _______ _______ _____ _____    ______ ____
ROOT
ATOM      1  C6  T08     1      94.785 119.195 143.697  0.00  0.00    +0.237 A 
ATOM      2  N1  T08     1      95.854 119.629 142.985  0.00  0.00    -0.125 NA
ATOM      3  N2  T08     1      95.605 120.267 141.816  0.00  0.00    -0.193 N 
ATOM      4  C7  T08     1      96.409 120.824 140.861  0.00  0.00    +0.158 A 
ATOM      5  N3  T08     1      95.648 121.381 139.843  0.00  0.00    -0.132 NA
ATOM      6  N4  T08     1      94.373 121.189 140.110  0.00  0.00    -0.128 NA
ATOM      7  C11 T08     1      94.378 120.525 141.285  0.00  0.00    +0.182 A 
ATOM      8  C12 T08     1      93.260 120.082 142.008  0.00  0.00    +0.010 A 
ATOM      9  C13 T08     1      93.468 119.408 143.226  0.00  0.00    +0.026 A 
ATOM     10  C14 T08     1      92.176 118.982 143.922  0.00  0.00    +0.025 C 
ATOM     11  C15 T08     1      91.397 118.081 142.922  0.00  0.00    +0.009 C 
ATOM     12  C16 T08     1      91.170 118.831 141.568  0.00  0.00    +0.009 C 
ATOM     13  C17 T08     1      91.793 120.256 141.625  0.00  0.00    +0.023 C 
ATOM     14  C18 T08     1      91.112 121.024 142.794  0.00  0.00    +0.009 C 
ATOM     15  C19 T08     1      91.337 120.273 144.147  0.00  0.00    +0.009 C 
ENDROOT
BRANCH   4  16
ATOM     16  C8  T08     1      97.880 120.872 140.869  0.00  0.00    +0.059 C 
ATOM     17  C9  T08     1      98.657 119.753 140.214  0.00  0.00    +0.012 C 
ATOM     18  C10 T08     1      98.628 121.121 139.580  0.00  0.00    +0.012 C 
ENDBRANCH   4  16
BRANCH   1  19
ATOM     19  O1  T08     1      94.957 118.540 144.898  0.00  0.00    -0.469 OA
BRANCH  19  20
ATOM     20  C5  T08     1      94.958 119.245 146.156  0.00  0.00    +0.286 C 
BRANCH  20  24
ATOM     21  C1  T08     1      96.888 116.800 149.093  0.00  0.00    +0.020 A 
ATOM     22  C2  T08     1      96.881 118.189 149.307  0.00  0.00    +0.003 A 
ATOM     23  C3  T08     1      96.251 119.010 148.359  0.00  0.00    +0.027 A 
ATOM     24  C4  T08     1      95.643 118.415 147.233  0.00  0.00    +0.079 A 
ATOM     25  N5  T08     1      95.659 117.080 147.028  0.00  0.00    -0.256 NA
ATOM     26  C20 T08     1      96.267 116.292 147.939  0.00  0.00    +0.111 A 
ENDBRANCH  20  24
ENDBRANCH  19  20
ENDBRANCH   1  19
TORSDOF 4
ENDMDL
MODEL 6
REMARK VINA RESULT:    -7.241      2.999      6.586
REMARK INTER + INTRA:          -9.769
REMARK INTER:                  -9.287
REMARK INTRA:                  -0.481
REMARK UNBOUND:                -0.835
REMARK  Name = ligands_pdb/TRN_CHEMBL178738.pdb
REMARK  4 active torsions:
REMARK  status: ('A' for Active; 'I' for Inactive)
REMARK    1  A    between atoms: C4_4  and  C5_5
REMARK    2  A    between atoms: C5_5  and  O1_6
REMARK    3  A    between atoms: O1_6  and  C6_7
REMARK    4  A    between atoms: C7_10  and  C8_11
REMARK                            x       y       z     vdW  Elec       q    Type
REMARK                         _______ _______ _______ _____ _____    ______ ____
ROOT
ATOM      1  C6  T08     1      95.053 119.020 140.060  0.00  0.00    +0.237 A 
ATOM      2  N1  T08     1      94.963 118.615 141.351  0.00  0.00    -0.125 NA
ATOM      3  N2  T08     1      96.076 118.729 142.117  0.00  0.00    -0.193 N 
ATOM      4  C7  T08     1      96.351 118.429 143.422  0.00  0.00    +0.158 A 
ATOM      5  N3  T08     1      97.663 118.759 143.735  0.00  0.00    -0.132 NA
ATOM      6  N4  T08     1      98.245 119.253 142.663  0.00  0.00    -0.128 NA
ATOM      7  C11 T08     1      97.280 119.222 141.719  0.00  0.00    +0.182 A 
ATOM      8  C12 T08     1      97.392 119.646 140.386  0.00  0.00    +0.010 A 
ATOM      9  C13 T08     1      96.265 119.541 139.549  0.00  0.00    +0.026 A 
ATOM     10  C14 T08     1      96.508 120.039 138.125  0.00  0.00    +0.025 C 
ATOM     11  C15 T08     1      97.697 119.216 137.552  0.00  0.00    +0.009 C 
ATOM     12  C16 T08     1      98.947 119.332 138.486  0.00  0.00    +0.009 C 
ATOM     13  C17 T08     1      98.627 120.236 139.711  0.00  0.00    +0.023 C 
ATOM     14  C18 T08     1      98.218 121.637 139.172  0.00  0.00    +0.009 C 
ATOM     15  C19 T08     1      96.970 121.521 138.237  0.00  0.00    +0.009 C 
ENDROOT
BRANCH   4  16
ATOM     16  C8  T08     1      95.420 117.854 144.408  0.00  0.00    +0.059 C 
ATOM     17  C9  T08     1      95.197 118.574 145.717  0.00  0.00    +0.012 C 
ATOM     18  C10 T08     1      94.102 118.540 144.681  0.00  0.00    +0.012 C 
ENDBRANCH   4  16
BRANCH   1  19
ATOM     19  O1  T08     1      93.964 118.938 139.219  0.00  0.00    -0.469 OA
BRANCH  19  20
ATOM     20  C5  T08     1      92.806 119.781 139.388  0.00  0.00    +0.286 C 
BRANCH  20  24
ATOM     21  C1  T08     1      89.650 117.545 141.223  0.00  0.00    +0.020 A 
ATOM     22  C2  T08     1      90.402 118.402 142.045  0.00  0.00    +0.003 A 
ATOM     23  C3  T08     1      91.440 119.147 141.465  0.00  0.00    +0.027 A 
ATOM     24  C4  T08     1      91.686 119.017 140.081  0.00  0.00    +0.079 A 
ATOM     25  N5  T08     1      90.966 118.187 139.297  0.00  0.00    -0.256 NA
ATOM     26  C20 T08     1      89.970 117.469 139.857  0.00  0.00    +0.111 A 
ENDBRANCH  20  24
ENDBRANCH  19  20
ENDBRANCH   1  19
TORSDOF 4
ENDMDL
MODEL 7
REMARK VINA RESULT:    -7.148      1.737      2.184
REMARK INTER + INTRA:          -9.654
REMARK INTER:                  -9.282
REMARK INTRA:                  -0.372
REMARK UNBOUND:                -0.835
REMARK  Name = ligands_pdb/TRN_CHEMBL178738.pdb
REMARK  4 active torsions:
REMARK  status: ('A' for Active; 'I' for Inactive)
REMARK    1  A    between atoms: C4_4  and  C5_5
REMARK    2  A    between atoms: C5_5  and  O1_6
REMARK    3  A    between atoms: O1_6  and  C6_7
REMARK    4  A    between atoms: C7_10  and  C8_11
REMARK                            x       y       z     vdW  Elec       q    Type
REMARK                         _______ _______ _______ _____ _____    ______ ____
ROOT
ATOM      1  C6  T08     1      94.849 121.808 138.414  0.00  0.00    +0.237 A 
ATOM      2  N1  T08     1      93.552 121.425 138.506  0.00  0.00    -0.125 NA
ATOM      3  N2  T08     1      93.305 120.163 138.933  0.00  0.00    -0.193 N 
ATOM      4  C7  T08     1      92.157 119.450 139.141  0.00  0.00    +0.158 A 
ATOM      5  N3  T08     1      92.448 118.176 139.609  0.00  0.00    -0.132 NA
ATOM      6  N4  T08     1      93.754 118.044 139.697  0.00  0.00    -0.128 NA
ATOM      7  C11 T08     1      94.236 119.237 139.289  0.00  0.00    +0.182 A 
ATOM      8  C12 T08     1      95.585 119.615 139.199  0.00  0.00    +0.010 A 
ATOM      9  C13 T08     1      95.892 120.915 138.755  0.00  0.00    +0.026 A 
ATOM     10  C14 T08     1      97.390 121.210 138.707  0.00  0.00    +0.025 C 
ATOM     11  C15 T08     1      98.034 120.144 137.774  0.00  0.00    +0.009 C 
ATOM     12  C16 T08     1      97.688 118.701 138.269  0.00  0.00    +0.009 C 
ATOM     13  C17 T08     1      96.802 118.762 139.546  0.00  0.00    +0.023 C 
ATOM     14  C18 T08     1      97.597 119.535 140.637  0.00  0.00    +0.009 C 
ATOM     15  C19 T08     1      97.944 120.978 140.142  0.00  0.00    +0.009 C 
ENDROOT
BRANCH   4  16
ATOM     16  C8  T08     1      90.778 119.924 138.933  0.00  0.00    +0.059 C 
ATOM     17  C9  T08     1      90.297 120.195 137.527  0.00  0.00    +0.012 C 
ATOM     18  C10 T08     1      89.762 119.009 138.290  0.00  0.00    +0.012 C 
ENDBRANCH   4  16
BRANCH   1  19
ATOM     19  O1  T08     1      95.181 123.078 137.991  0.00  0.00    -0.469 OA
BRANCH  19  20
ATOM     20  C5  T08     1      95.561 123.350 136.627  0.00  0.00    +0.286 C 
BRANCH  20  24
ATOM     21  C1  T08     1      94.925 127.469 135.648  0.00  0.00    +0.020 A 
ATOM     22  C2  T08     1      95.799 127.181 136.710  0.00  0.00    +0.003 A 
ATOM     23  C3  T08     1      96.025 125.838 137.047  0.00  0.00    +0.027 A 
ATOM     24  C4  T08     1      95.376 124.827 136.306  0.00  0.00    +0.079 A 
ATOM     25  N5  T08     1      94.531 125.109 135.290  0.00  0.00    -0.256 NA
ATOM     26  C20 T08     1      94.313 126.401 134.969  0.00  0.00    +0.111 A 
ENDBRANCH  20  24
ENDBRANCH  19  20
ENDBRANCH   1  19
TORSDOF 4
ENDMDL
MODEL 8
REMARK VINA RESULT:    -7.145      3.072      5.982
REMARK INTER + INTRA:          -9.650
REMARK INTER:                  -9.056
REMARK INTRA:                  -0.594
REMARK UNBOUND:                -0.835
REMARK  Name = ligands_pdb/TRN_CHEMBL178738.pdb
REMARK  4 active torsions:
REMARK  status: ('A' for Active; 'I' for Inactive)
REMARK    1  A    between atoms: C4_4  and  C5_5
REMARK    2  A    between atoms: C5_5  and  O1_6
REMARK    3  A    between atoms: O1_6  and  C6_7
REMARK    4  A    between atoms: C7_10  and  C8_11
REMARK                            x       y       z     vdW  Elec       q    Type
REMARK                         _______ _______ _______ _____ _____    ______ ____
ROOT
ATOM      1  C6  T08     1      96.633 119.506 140.501  0.00  0.00    +0.237 A 
ATOM      2  N1  T08     1      95.313 119.815 140.547  0.00  0.00    -0.125 NA
ATOM      3  N2  T08     1      94.778 120.416 139.456  0.00  0.00    -0.193 N 
ATOM      4  C7  T08     1      93.521 120.860 139.152  0.00  0.00    +0.158 A 
ATOM      5  N3  T08     1      93.486 121.395 137.872  0.00  0.00    -0.132 NA
ATOM      6  N4  T08     1      94.689 121.318 137.345  0.00  0.00    -0.128 NA
ATOM      7  C11 T08     1      95.435 120.734 138.307  0.00  0.00    +0.182 A 
ATOM      8  C12 T08     1      96.802 120.422 138.242  0.00  0.00    +0.010 A 
ATOM      9  C13 T08     1      97.405 119.803 139.354  0.00  0.00    +0.026 A 
ATOM     10  C14 T08     1      98.892 119.507 139.160  0.00  0.00    +0.025 C 
ATOM     11  C15 T08     1      99.587 120.862 138.841  0.00  0.00    +0.009 C 
ATOM     12  C16 T08     1      98.911 121.549 137.608  0.00  0.00    +0.009 C 
ATOM     13  C17 T08     1      97.745 120.672 137.069  0.00  0.00    +0.023 C 
ATOM     14  C18 T08     1      98.337 119.291 136.666  0.00  0.00    +0.009 C 
ATOM     15  C19 T08     1      99.013 118.605 137.898  0.00  0.00    +0.009 C 
ENDROOT
BRANCH   4  16
ATOM     16  C8  T08     1      92.331 120.790 140.016  0.00  0.00    +0.059 C 
ATOM     17  C9  T08     1      92.218 121.731 141.193  0.00  0.00    +0.012 C 
ATOM     18  C10 T08     1      91.322 121.915 139.994  0.00  0.00    +0.012 C 
ENDBRANCH   4  16
BRANCH   1  19
ATOM     19  O1  T08     1      97.250 118.891 141.569  0.00  0.00    -0.469 OA
BRANCH  19  20
ATOM     20  C5  T08     1      97.534 119.598 142.794  0.00  0.00    +0.286 C 
BRANCH  20  24
ATOM     21  C1  T08     1      95.653 117.799 146.193  0.00  0.00    +0.020 A 
ATOM     22  C2  T08     1      95.077 117.566 144.933  0.00  0.00    +0.003 A 
ATOM     23  C3  T08     1      95.678 118.144 143.803  0.00  0.00    +0.027 A 
ATOM     24  C4  T08     1      96.840 118.927 143.971  0.00  0.00    +0.079 A 
ATOM     25  N5  T08     1      97.386 119.154 145.186  0.00  0.00    -0.256 NA
ATOM     26  C20 T08     1      96.806 118.600 146.270  0.00  0.00    +0.111 A 
ENDBRANCH  20  24
ENDBRANCH  19  20
ENDBRANCH   1  19
TORSDOF 4
ENDMDL
MODEL 9
REMARK VINA RESULT:    -7.144      3.499      6.786
REMARK INTER + INTRA:          -9.649
REMARK INTER:                  -8.459
REMARK INTRA:                  -1.189
REMARK UNBOUND:                -0.835
REMARK  Name = ligands_pdb/TRN_CHEMBL178738.pdb
REMARK  4 active torsions:
REMARK  status: ('A' for Active; 'I' for Inactive)
REMARK    1  A    between atoms: C4_4  and  C5_5
REMARK    2  A    between atoms: C5_5  and  O1_6
REMARK    3  A    between atoms: O1_6  and  C6_7
REMARK    4  A    between atoms: C7_10  and  C8_11
REMARK                            x       y       z     vdW  Elec       q    Type
REMARK                         _______ _______ _______ _____ _____    ______ ____
ROOT
ATOM      1  C6  T08     1      94.001 118.464 140.929  0.00  0.00    +0.237 A 
ATOM      2  N1  T08     1      95.009 118.538 140.025  0.00  0.00    -0.125 NA
ATOM      3  N2  T08     1      96.252 118.792 140.500  0.00  0.00    -0.193 N 
ATOM      4  C7  T08     1      97.474 118.934 139.903  0.00  0.00    +0.158 A 
ATOM      5  N3  T08     1      98.459 119.175 140.852  0.00  0.00    -0.132 NA
ATOM      6  N4  T08     1      97.903 119.203 142.044  0.00  0.00    -0.128 NA
ATOM      7  C11 T08     1      96.594 118.974 141.805  0.00  0.00    +0.182 A 
ATOM      8  C12 T08     1      95.563 118.902 142.755  0.00  0.00    +0.010 A 
ATOM      9  C13 T08     1      94.253 118.646 142.308  0.00  0.00    +0.026 A 
ATOM     10  C14 T08     1      93.222 118.584 143.434  0.00  0.00    +0.025 C 
ATOM     11  C15 T08     1      93.290 119.944 144.188  0.00  0.00    +0.009 C 
ATOM     12  C16 T08     1      94.748 120.227 144.679  0.00  0.00    +0.009 C 
ATOM     13  C17 T08     1      95.696 119.065 144.266  0.00  0.00    +0.023 C 
ATOM     14  C18 T08     1      95.150 117.757 144.908  0.00  0.00    +0.009 C 
ATOM     15  C19 T08     1      93.692 117.474 144.418  0.00  0.00    +0.009 C 
ENDROOT
BRANCH   4  16
ATOM     16  C8  T08     1      97.766 118.837 138.463  0.00  0.00    +0.059 C 
ATOM     17  C9  T08     1      97.389 119.985 137.556  0.00  0.00    +0.012 C 
ATOM     18  C10 T08     1      98.841 119.708 137.857  0.00  0.00    +0.012 C 
ENDBRANCH   4  16
BRANCH   1  19
ATOM     19  O1  T08     1      92.709 118.205 140.523  0.00  0.00    -0.469 OA
BRANCH  19  20
ATOM     20  C5  T08     1      91.904 119.204 139.864  0.00  0.00    +0.286 C 
BRANCH  20  24
ATOM     21  C1  T08     1      90.322 121.921 142.769  0.00  0.00    +0.020 A 
ATOM     22  C2  T08     1      91.411 122.358 141.997  0.00  0.00    +0.003 A 
ATOM     23  C3  T08     1      91.945 121.485 141.036  0.00  0.00    +0.027 A 
ATOM     24  C4  T08     1      91.366 120.208 140.874  0.00  0.00    +0.079 A 
ATOM     25  N5  T08     1      90.323 119.790 141.624  0.00  0.00    -0.256 NA
ATOM     26  C20 T08     1      89.813 120.630 142.549  0.00  0.00    +0.111 A 
ENDBRANCH  20  24
ENDBRANCH  19  20
ENDBRANCH   1  19
TORSDOF 4
ENDMDL
MODEL 10
REMARK VINA RESULT:    -7.109      2.725      6.750
REMARK INTER + INTRA:          -9.607
REMARK INTER:                  -8.647
REMARK INTRA:                  -0.960
REMARK UNBOUND:                -0.835
REMARK  Name = ligands_pdb/TRN_CHEMBL178738.pdb
REMARK  4 active torsions:
REMARK  status: ('A' for Active; 'I' for Inactive)
REMARK    1  A    between atoms: C4_4  and  C5_5
REMARK    2  A    between atoms: C5_5  and  O1_6
REMARK    3  A    between atoms: O1_6  and  C6_7
REMARK    4  A    between atoms: C7_10  and  C8_11
REMARK                            x       y       z     vdW  Elec       q    Type
REMARK                         _______ _______ _______ _____ _____    ______ ____
ROOT
ATOM      1  C6  T08     1      95.618 119.514 139.938  0.00  0.00    +0.237 A 
ATOM      2  N1  T08     1      96.510 120.171 139.157  0.00  0.00    -0.125 NA
ATOM      3  N2  T08     1      96.022 121.108 138.309  0.00  0.00    -0.193 N 
ATOM      4  C7  T08     1      96.606 121.944 137.397  0.00  0.00    +0.158 A 
ATOM      5  N3  T08     1      95.651 122.743 136.782  0.00  0.00    -0.132 NA
ATOM      6  N4  T08     1      94.466 122.437 137.265  0.00  0.00    -0.128 NA
ATOM      7  C11 T08     1      94.716 121.465 138.167  0.00  0.00    +0.182 A 
ATOM      8  C12 T08     1      93.778 120.794 138.967  0.00  0.00    +0.010 A 
ATOM      9  C13 T08     1      94.236 119.807 139.860  0.00  0.00    +0.026 A 
ATOM     10  C14 T08     1      93.123 119.155 140.679  0.00  0.00    +0.025 C 
ATOM     11  C15 T08     1      92.107 118.552 139.666  0.00  0.00    +0.009 C 
ATOM     12  C16 T08     1      91.603 119.651 138.673  0.00  0.00    +0.009 C 
ATOM     13  C17 T08     1      92.268 121.019 138.994  0.00  0.00    +0.023 C 
ATOM     14  C18 T08     1      91.897 121.396 140.457  0.00  0.00    +0.009 C 
ATOM     15  C19 T08     1      92.400 120.297 141.449  0.00  0.00    +0.009 C 
ENDROOT
BRANCH   4  16
ATOM     16  C8  T08     1      98.041 122.039 137.084  0.00  0.00    +0.059 C 
ATOM     17  C9  T08     1      98.688 120.953 136.256  0.00  0.00    +0.012 C 
ATOM     18  C10 T08     1      98.481 122.326 135.667  0.00  0.00    +0.012 C 
ENDBRANCH   4  16
BRANCH   1  19
ATOM     19  O1  T08     1      96.037 118.549 140.829  0.00  0.00    -0.469 OA
BRANCH  19  20
ATOM     20  C5  T08     1      96.745 118.887 142.039  0.00  0.00    +0.286 C 
BRANCH  20  24
ATOM     21  C1  T08     1      94.006 119.186 145.316  0.00  0.00    +0.020 A 
ATOM     22  C2  T08     1      94.495 117.909 144.993  0.00  0.00    +0.003 A 
ATOM     23  C3  T08     1      95.397 117.787 143.925  0.00  0.00    +0.027 A 
ATOM     24  C4  T08     1      95.785 118.946 143.220  0.00  0.00    +0.079 A 
ATOM     25  N5  T08     1      95.306 120.171 143.529  0.00  0.00    -0.256 NA
ATOM     26  C20 T08     1      94.437 120.286 144.555  0.00  0.00    +0.111 A 
ENDBRANCH  20  24
ENDBRANCH  19  20
ENDBRANCH   1  19
TORSDOF 4
ENDMDL
