MODEL 1
REMARK VINA RESULT:    -8.568      0.000      0.000
REMARK INTER + INTRA:         -12.109
REMARK INTER:                 -10.572
REMARK INTRA:                  -1.537
REMARK UNBOUND:                -1.537
REMARK  Name = ligands_pdb/TRN_CHEMBL179474.pdb
REMARK  5 active torsions:
REMARK  status: ('A' for Active; 'I' for Inactive)
REMARK    1  A    between atoms: C1_1  and  C2_2
REMARK    2  A    between atoms: C6_7  and  C7_8
REMARK    3  A    between atoms: C7_8  and  O1_9
REMARK    4  A    between atoms: O1_9  and  C8_10
REMARK    5  A    between atoms: C9_13  and  C10_14
REMARK                            x       y       z     vdW  Elec       q    Type
REMARK                         _______ _______ _______ _____ _____    ______ ____
ROOT
ATOM      1  C8  T09     1      95.247 120.613 142.272  0.00  0.00    +0.237 A 
ATOM      2  N2  T09     1      95.350 120.025 143.490  0.00  0.00    -0.125 NA
ATOM      3  N3  T09     1      94.422 119.092 143.816  0.00  0.00    -0.189 N 
ATOM      4  C9  T09     1      94.188 118.329 144.931  0.00  0.00    +0.185 A 
ATOM      5  N4  T09     1      93.044 117.559 144.777  0.00  0.00    -0.127 NA
ATOM      6  N5  T09     1      92.532 117.799 143.589  0.00  0.00    -0.127 NA
ATOM      7  C16 T09     1      93.366 118.712 143.044  0.00  0.00    +0.182 A 
ATOM      8  C17 T09     1      93.243 119.309 141.779  0.00  0.00    +0.010 A 
ATOM      9  C18 T09     1      94.198 120.266 141.391  0.00  0.00    +0.026 A 
ATOM     10  C19 T09     1      93.957 120.847 139.998  0.00  0.00    +0.025 C 
ATOM     11  C20 T09     1      92.530 121.470 140.009  0.00  0.00    +0.009 C 
ATOM     12  C21 T09     1      91.471 120.407 140.447  0.00  0.00    +0.009 C 
ATOM     13  C22 T09     1      92.157 119.043 140.741  0.00  0.00    +0.023 C 
ATOM     14  C23 T09     1      92.880 118.587 139.441  0.00  0.00    +0.009 C 
ATOM     15  C24 T09     1      93.941 119.649 139.004  0.00  0.00    +0.009 C 
ENDROOT
BRANCH   4  16
ATOM     16  C10 T09     1      94.992 118.292 146.160  0.00  0.00    +0.021 A 
ATOM     17  C11 T09     1      94.975 119.385 147.049  0.00  0.00    +0.011 A 
ATOM     18  C12 T09     1      95.737 119.362 148.229  0.00  0.00    +0.001 A 
ATOM     19  C13 T09     1      96.522 118.240 148.535  0.00  0.00    +0.000 A 
ATOM     20  C14 T09     1      96.541 117.141 147.663  0.00  0.00    +0.001 A 
ATOM     21  C15 T09     1      95.779 117.167 146.483  0.00  0.00    +0.011 A 
ENDBRANCH   4  16
BRANCH   1  22
ATOM     22  O1  T09     1      96.163 121.557 141.866  0.00  0.00    -0.469 OA
BRANCH  22  23
ATOM     23  C7  T09     1      97.516 121.207 141.515  0.00  0.00    +0.286 C 
BRANCH  23  30
ATOM     24  C1  T09     1      97.247 118.629 139.941  0.00  0.00    +0.046 C 
ATOM     25  C2  T09     1      97.527 119.965 139.262  0.00  0.00    -0.026 A 
ATOM     26  C3  T09     1      97.665 120.023 137.863  0.00  0.00    +0.007 A 
ATOM     27  C4  T09     1      97.922 121.261 137.254  0.00  0.00    +0.020 A 
ATOM     28  C5  T09     1      98.033 122.401 138.066  0.00  0.00    +0.111 A 
ATOM     29  N1  T09     1      97.902 122.357 139.406  0.00  0.00    -0.256 NA
ATOM     30  C6  T09     1      97.651 121.168 139.998  0.00  0.00    +0.081 A 
ENDBRANCH  23  30
ENDBRANCH  22  23
ENDBRANCH   1  22
TORSDOF 4
ENDMDL
MODEL 2
REMARK VINA RESULT:    -8.557      1.550      1.971
REMARK INTER + INTRA:         -12.094
REMARK INTER:                 -11.260
REMARK INTRA:                  -0.834
REMARK UNBOUND:                -1.537
REMARK  Name = ligands_pdb/TRN_CHEMBL179474.pdb
REMARK  5 active torsions:
REMARK  status: ('A' for Active; 'I' for Inactive)
REMARK    1  A    between atoms: C1_1  and  C2_2
REMARK    2  A    between atoms: C6_7  and  C7_8
REMARK    3  A    between atoms: C7_8  and  O1_9
REMARK    4  A    between atoms: O1_9  and  C8_10
REMARK    5  A    between atoms: C9_13  and  C10_14
REMARK                            x       y       z     vdW  Elec       q    Type
REMARK                         _______ _______ _______ _____ _____    ______ ____
ROOT
ATOM      1  C8  T09     1      96.254 119.161 142.817  0.00  0.00    +0.237 A 
ATOM      2  N2  T09     1      96.278 118.927 144.153  0.00  0.00    -0.125 NA
ATOM      3  N3  T09     1      95.096 118.959 144.816  0.00  0.00    -0.189 N 
ATOM      4  C9  T09     1      94.735 118.806 146.130  0.00  0.00    +0.185 A 
ATOM      5  N4  T09     1      93.371 118.999 146.299  0.00  0.00    -0.127 NA
ATOM      6  N5  T09     1      92.837 119.267 145.126  0.00  0.00    -0.127 NA
ATOM      7  C16 T09     1      93.880 119.239 144.269  0.00  0.00    +0.182 A 
ATOM      8  C17 T09     1      93.835 119.483 142.887  0.00  0.00    +0.010 A 
ATOM      9  C18 T09     1      95.036 119.438 142.156  0.00  0.00    +0.026 A 
ATOM     10  C19 T09     1      94.861 119.724 140.665  0.00  0.00    +0.025 C 
ATOM     11  C20 T09     1      94.201 121.129 140.548  0.00  0.00    +0.009 C 
ATOM     12  C21 T09     1      92.870 121.179 141.366  0.00  0.00    +0.009 C 
ATOM     13  C22 T09     1      92.599 119.810 142.053  0.00  0.00    +0.023 C 
ATOM     14  C23 T09     1      92.512 118.730 140.936  0.00  0.00    +0.009 C 
ATOM     15  C24 T09     1      93.845 118.678 140.120  0.00  0.00    +0.009 C 
ENDROOT
BRANCH   4  16
ATOM     16  C10 T09     1      95.622 118.493 147.258  0.00  0.00    +0.021 A 
ATOM     17  C11 T09     1      95.822 119.440 148.283  0.00  0.00    +0.011 A 
ATOM     18  C12 T09     1      96.666 119.153 149.369  0.00  0.00    +0.001 A 
ATOM     19  C13 T09     1      97.316 117.911 149.445  0.00  0.00    +0.000 A 
ATOM     20  C14 T09     1      97.117 116.957 148.436  0.00  0.00    +0.001 A 
ATOM     21  C15 T09     1      96.274 117.247 147.349  0.00  0.00    +0.011 A 
ENDBRANCH   4  16
BRANCH   1  22
ATOM     22  O1  T09     1      97.414 119.129 142.076  0.00  0.00    -0.469 OA
BRANCH  22  23
ATOM     23  C7  T09     1      97.973 120.316 141.481  0.00  0.00    +0.286 C 
BRANCH  23  30
ATOM     24  C1  T09     1      97.370 121.993 139.027  0.00  0.00    +0.046 C 
ATOM     25  C2  T09     1      98.260 120.757 138.963  0.00  0.00    -0.026 A 
ATOM     26  C3  T09     1      98.831 120.369 137.736  0.00  0.00    +0.007 A 
ATOM     27  C4  T09     1      99.648 119.229 137.696  0.00  0.00    +0.020 A 
ATOM     28  C5  T09     1      99.868 118.514 138.883  0.00  0.00    +0.111 A 
ATOM     29  N1  T09     1      99.327 118.877 140.063  0.00  0.00    -0.256 NA
ATOM     30  C6  T09     1      98.542 119.976 140.110  0.00  0.00    +0.081 A 
ENDBRANCH  23  30
ENDBRANCH  22  23
ENDBRANCH   1  22
TORSDOF 4
ENDMDL
MODEL 3
REMARK VINA RESULT:    -8.260      3.173      8.563
REMARK INTER + INTRA:         -11.729
REMARK INTER:                 -10.212
REMARK INTRA:                  -1.516
REMARK UNBOUND:                -1.537
REMARK  Name = ligands_pdb/TRN_CHEMBL179474.pdb
REMARK  5 active torsions:
REMARK  status: ('A' for Active; 'I' for Inactive)
REMARK    1  A    between atoms: C1_1  and  C2_2
REMARK    2  A    between atoms: C6_7  and  C7_8
REMARK    3  A    between atoms: C7_8  and  O1_9
REMARK    4  A    between atoms: O1_9  and  C8_10
REMARK    5  A    between atoms: C9_13  and  C10_14
REMARK                            x       y       z     vdW  Elec       q    Type
REMARK                         _______ _______ _______ _____ _____    ______ ____
ROOT
ATOM      1  C8  T09     1      95.446 121.765 137.948  0.00  0.00    +0.237 A 
ATOM      2  N2  T09     1      95.456 123.101 137.711  0.00  0.00    -0.125 NA
ATOM      3  N3  T09     1      96.663 123.703 137.568  0.00  0.00    -0.189 N 
ATOM      4  C9  T09     1      97.064 124.997 137.358  0.00  0.00    +0.185 A 
ATOM      5  N4  T09     1      98.448 125.095 137.350  0.00  0.00    -0.127 NA
ATOM      6  N5  T09     1      98.955 123.897 137.545  0.00  0.00    -0.127 NA
ATOM      7  C16 T09     1      97.877 123.094 137.674  0.00  0.00    +0.182 A 
ATOM      8  C17 T09     1      97.886 121.711 137.917  0.00  0.00    +0.010 A 
ATOM      9  C18 T09     1      96.655 121.042 138.050  0.00  0.00    +0.026 A 
ATOM     10  C19 T09     1      96.794 119.543 138.316  0.00  0.00    +0.025 C 
ATOM     11  C20 T09     1      97.643 119.391 139.612  0.00  0.00    +0.009 C 
ATOM     12  C21 T09     1      99.007 120.140 139.465  0.00  0.00    +0.009 C 
ATOM     13  C22 T09     1      99.112 120.814 138.067  0.00  0.00    +0.023 C 
ATOM     14  C23 T09     1      98.985 119.696 136.992  0.00  0.00    +0.009 C 
ATOM     15  C24 T09     1      97.619 118.949 137.138  0.00  0.00    +0.009 C 
ENDROOT
BRANCH   4  16
ATOM     16  C10 T09     1      96.199 126.169 137.169  0.00  0.00    +0.021 A 
ATOM     17  C11 T09     1      95.684 126.854 138.288  0.00  0.00    +0.011 A 
ATOM     18  C12 T09     1      94.858 127.979 138.123  0.00  0.00    +0.001 A 
ATOM     19  C13 T09     1      94.542 128.434 136.834  0.00  0.00    +0.000 A 
ATOM     20  C14 T09     1      95.056 127.766 135.712  0.00  0.00    +0.001 A 
ATOM     21  C15 T09     1      95.881 126.641 135.879  0.00  0.00    +0.011 A 
ENDBRANCH   4  16
BRANCH   1  22
ATOM     22  O1  T09     1      94.257 121.085 138.088  0.00  0.00    -0.469 OA
BRANCH  22  23
ATOM     23  C7  T09     1      93.389 121.289 139.220  0.00  0.00    +0.286 C 
BRANCH  23  30
ATOM     24  C1  T09     1      93.404 118.290 139.671  0.00  0.00    +0.046 C 
ATOM     25  C2  T09     1      94.022 119.260 140.671  0.00  0.00    -0.026 A 
ATOM     26  C3  T09     1      94.625 118.768 141.843  0.00  0.00    +0.007 A 
ATOM     27  C4  T09     1      95.190 119.675 142.752  0.00  0.00    +0.020 A 
ATOM     28  C5  T09     1      95.133 121.047 142.459  0.00  0.00    +0.111 A 
ATOM     29  N1  T09     1      94.559 121.530 141.340  0.00  0.00    -0.256 NA
ATOM     30  C6  T09     1      94.016 120.661 140.459  0.00  0.00    +0.081 A 
ENDBRANCH  23  30
ENDBRANCH  22  23
ENDBRANCH   1  22
TORSDOF 4
ENDMDL
MODEL 4
REMARK VINA RESULT:    -8.114      2.342      7.148
REMARK INTER + INTRA:         -11.548
REMARK INTER:                 -10.062
REMARK INTRA:                  -1.487
REMARK UNBOUND:                -1.537
REMARK  Name = ligands_pdb/TRN_CHEMBL179474.pdb
REMARK  5 active torsions:
REMARK  status: ('A' for Active; 'I' for Inactive)
REMARK    1  A    between atoms: C1_1  and  C2_2
REMARK    2  A    between atoms: C6_7  and  C7_8
REMARK    3  A    between atoms: C7_8  and  O1_9
REMARK    4  A    between atoms: O1_9  and  C8_10
REMARK    5  A    between atoms: C9_13  and  C10_14
REMARK                            x       y       z     vdW  Elec       q    Type
REMARK                         _______ _______ _______ _____ _____    ______ ____
ROOT
ATOM      1  C8  T09     1      94.017 118.691 141.587  0.00  0.00    +0.237 A 
ATOM      2  N2  T09     1      95.074 118.985 140.790  0.00  0.00    -0.125 NA
ATOM      3  N3  T09     1      96.293 119.085 141.376  0.00  0.00    -0.189 N 
ATOM      4  C9  T09     1      97.550 119.387 140.918  0.00  0.00    +0.185 A 
ATOM      5  N4  T09     1      98.465 119.420 141.960  0.00  0.00    -0.127 NA
ATOM      6  N5  T09     1      97.836 119.141 143.082  0.00  0.00    -0.127 NA
ATOM      7  C16 T09     1      96.553 118.951 142.706  0.00  0.00    +0.182 A 
ATOM      8  C17 T09     1      95.470 118.644 143.547  0.00  0.00    +0.010 A 
ATOM      9  C18 T09     1      94.191 118.509 142.977  0.00  0.00    +0.026 A 
ATOM     10  C19 T09     1      93.096 118.180 143.991  0.00  0.00    +0.025 C 
ATOM     11  C20 T09     1      93.105 119.320 145.052  0.00  0.00    +0.009 C 
ATOM     12  C21 T09     1      94.528 119.473 145.680  0.00  0.00    +0.009 C 
ATOM     13  C22 T09     1      95.513 118.441 145.060  0.00  0.00    +0.023 C 
ATOM     14  C23 T09     1      94.945 117.019 145.337  0.00  0.00    +0.009 C 
ATOM     15  C24 T09     1      93.522 116.865 144.707  0.00  0.00    +0.009 C 
ENDROOT
BRANCH   4  16
ATOM     16  C10 T09     1      97.940 119.662 139.529  0.00  0.00    +0.021 A 
ATOM     17  C11 T09     1      98.717 120.798 139.226  0.00  0.00    +0.011 A 
ATOM     18  C12 T09     1      99.101 121.072 137.902  0.00  0.00    +0.001 A 
ATOM     19  C13 T09     1      98.714 120.207 136.866  0.00  0.00    +0.000 A 
ATOM     20  C14 T09     1      97.949 119.068 137.157  0.00  0.00    +0.001 A 
ATOM     21  C15 T09     1      97.565 118.797 138.481  0.00  0.00    +0.011 A 
ENDBRANCH   4  16
BRANCH   1  22
ATOM     22  O1  T09     1      92.753 118.557 141.058  0.00  0.00    -0.469 OA
BRANCH  22  23
ATOM     23  C7  T09     1      91.974 119.697 140.646  0.00  0.00    +0.286 C 
BRANCH  23  30
ATOM     24  C1  T09     1      92.396 122.156 142.368  0.00  0.00    +0.046 C 
ATOM     25  C2  T09     1      91.204 121.227 142.566  0.00  0.00    -0.026 A 
ATOM     26  C3  T09     1      90.259 121.505 143.571  0.00  0.00    +0.007 A 
ATOM     27  C4  T09     1      89.168 120.638 143.738  0.00  0.00    +0.020 A 
ATOM     28  C5  T09     1      89.057 119.522 142.894  0.00  0.00    +0.111 A 
ATOM     29  N1  T09     1      89.956 119.247 141.928  0.00  0.00    -0.256 NA
ATOM     30  C6  T09     1      91.007 120.079 141.760  0.00  0.00    +0.081 A 
ENDBRANCH  23  30
ENDBRANCH  22  23
ENDBRANCH   1  22
TORSDOF 4
ENDMDL
MODEL 5
REMARK VINA RESULT:    -7.905      2.305      7.121
REMARK INTER + INTRA:         -11.290
REMARK INTER:                 -10.590
REMARK INTRA:                  -0.700
REMARK UNBOUND:                -1.537
REMARK  Name = ligands_pdb/TRN_CHEMBL179474.pdb
REMARK  5 active torsions:
REMARK  status: ('A' for Active; 'I' for Inactive)
REMARK    1  A    between atoms: C1_1  and  C2_2
REMARK    2  A    between atoms: C6_7  and  C7_8
REMARK    3  A    between atoms: C7_8  and  O1_9
REMARK    4  A    between atoms: O1_9  and  C8_10
REMARK    5  A    between atoms: C9_13  and  C10_14
REMARK                            x       y       z     vdW  Elec       q    Type
REMARK                         _______ _______ _______ _____ _____    ______ ____
ROOT
ATOM      1  C8  T09     1      94.044 118.796 141.839  0.00  0.00    +0.237 A 
ATOM      2  N2  T09     1      95.090 119.089 141.027  0.00  0.00    -0.125 NA
ATOM      3  N3  T09     1      96.328 119.099 141.579  0.00  0.00    -0.189 N 
ATOM      4  C9  T09     1      97.584 119.371 141.100  0.00  0.00    +0.185 A 
ATOM      5  N4  T09     1      98.530 119.301 142.113  0.00  0.00    -0.127 NA
ATOM      6  N5  T09     1      97.921 118.985 143.236  0.00  0.00    -0.127 NA
ATOM      7  C16 T09     1      96.620 118.875 142.891  0.00  0.00    +0.182 A 
ATOM      8  C17 T09     1      95.549 118.569 143.746  0.00  0.00    +0.010 A 
ATOM      9  C18 T09     1      94.249 118.525 143.210  0.00  0.00    +0.026 A 
ATOM     10  C19 T09     1      93.170 118.187 144.238  0.00  0.00    +0.025 C 
ATOM     11  C20 T09     1      93.262 119.260 145.361  0.00  0.00    +0.009 C 
ATOM     12  C21 T09     1      94.709 119.312 145.952  0.00  0.00    +0.009 C 
ATOM     13  C22 T09     1      95.626 118.275 145.243  0.00  0.00    +0.023 C 
ATOM     14  C23 T09     1      95.000 116.866 145.456  0.00  0.00    +0.009 C 
ATOM     15  C24 T09     1      93.554 116.814 144.863  0.00  0.00    +0.009 C 
ENDROOT
BRANCH   4  16
ATOM     16  C10 T09     1      97.947 119.710 139.718  0.00  0.00    +0.021 A 
ATOM     17  C11 T09     1      97.614 118.833 138.666  0.00  0.00    +0.011 A 
ATOM     18  C12 T09     1      97.953 119.146 137.338  0.00  0.00    +0.001 A 
ATOM     19  C13 T09     1      98.624 120.343 137.048  0.00  0.00    +0.000 A 
ATOM     20  C14 T09     1      98.952 121.228 138.086  0.00  0.00    +0.001 A 
ATOM     21  C15 T09     1      98.614 120.913 139.413  0.00  0.00    +0.011 A 
ENDBRANCH   4  16
BRANCH   1  22
ATOM     22  O1  T09     1      92.759 118.751 141.343  0.00  0.00    -0.469 OA
BRANCH  22  23
ATOM     23  C7  T09     1      92.465 119.024 139.960  0.00  0.00    +0.286 C 
BRANCH  23  30
ATOM     24  C1  T09     1      90.663 120.286 137.874  0.00  0.00    +0.046 C 
ATOM     25  C2  T09     1      90.261 119.027 138.633  0.00  0.00    -0.026 A 
ATOM     26  C3  T09     1      89.021 118.417 138.369  0.00  0.00    +0.007 A 
ATOM     27  C4  T09     1      88.668 117.258 139.077  0.00  0.00    +0.020 A 
ATOM     28  C5  T09     1      89.567 116.747 140.027  0.00  0.00    +0.111 A 
ATOM     29  N1  T09     1      90.757 117.324 140.287  0.00  0.00    -0.256 NA
ATOM     30  C6  T09     1      91.104 118.438 139.606  0.00  0.00    +0.081 A 
ENDBRANCH  23  30
ENDBRANCH  22  23
ENDBRANCH   1  22
TORSDOF 4
ENDMDL
MODEL 6
REMARK VINA RESULT:    -7.583      4.497      8.926
REMARK INTER + INTRA:         -10.893
REMARK INTER:                  -9.989
REMARK INTRA:                  -0.904
REMARK UNBOUND:                -1.537
REMARK  Name = ligands_pdb/TRN_CHEMBL179474.pdb
REMARK  5 active torsions:
REMARK  status: ('A' for Active; 'I' for Inactive)
REMARK    1  A    between atoms: C1_1  and  C2_2
REMARK    2  A    between atoms: C6_7  and  C7_8
REMARK    3  A    between atoms: C7_8  and  O1_9
REMARK    4  A    between atoms: O1_9  and  C8_10
REMARK    5  A    between atoms: C9_13  and  C10_14
REMARK                            x       y       z     vdW  Elec       q    Type
REMARK                         _______ _______ _______ _____ _____    ______ ____
ROOT
ATOM      1  C8  T09     1      95.415 121.862 137.845  0.00  0.00    +0.237 A 
ATOM      2  N2  T09     1      95.446 123.201 137.633  0.00  0.00    -0.125 NA
ATOM      3  N3  T09     1      96.662 123.796 137.556  0.00  0.00    -0.189 N 
ATOM      4  C9  T09     1      97.083 125.090 137.386  0.00  0.00    +0.185 A 
ATOM      5  N4  T09     1      98.467 125.177 137.445  0.00  0.00    -0.127 NA
ATOM      6  N5  T09     1      98.955 123.971 137.642  0.00  0.00    -0.127 NA
ATOM      7  C16 T09     1      97.866 123.175 137.707  0.00  0.00    +0.182 A 
ATOM      8  C17 T09     1      97.853 121.788 137.926  0.00  0.00    +0.010 A 
ATOM      9  C18 T09     1      96.613 121.127 137.990  0.00  0.00    +0.026 A 
ATOM     10  C19 T09     1      96.728 119.623 138.237  0.00  0.00    +0.025 C 
ATOM     11  C20 T09     1      97.515 119.442 139.567  0.00  0.00    +0.009 C 
ATOM     12  C21 T09     1      98.890 120.182 139.496  0.00  0.00    +0.009 C 
ATOM     13  C22 T09     1      99.064 120.879 138.117  0.00  0.00    +0.023 C 
ATOM     14  C23 T09     1      98.979 119.780 137.018  0.00  0.00    +0.009 C 
ATOM     15  C24 T09     1      97.602 119.042 137.088  0.00  0.00    +0.009 C 
ENDROOT
BRANCH   4  16
ATOM     16  C10 T09     1      96.236 126.272 137.179  0.00  0.00    +0.021 A 
ATOM     17  C11 T09     1      95.907 126.685 135.872  0.00  0.00    +0.011 A 
ATOM     18  C12 T09     1      95.096 127.813 135.659  0.00  0.00    +0.001 A 
ATOM     19  C13 T09     1      94.601 128.538 136.754  0.00  0.00    +0.000 A 
ATOM     20  C14 T09     1      94.914 128.132 138.059  0.00  0.00    +0.001 A 
ATOM     21  C15 T09     1      95.726 127.005 138.270  0.00  0.00    +0.011 A 
ENDBRANCH   4  16
BRANCH   1  22
ATOM     22  O1  T09     1      94.215 121.189 137.918  0.00  0.00    -0.469 OA
BRANCH  22  23
ATOM     23  C7  T09     1      93.241 121.475 138.940  0.00  0.00    +0.286 C 
BRANCH  23  30
ATOM     24  C1  T09     1      93.345 118.932 140.587  0.00  0.00    +0.046 C 
ATOM     25  C2  T09     1      92.180 119.244 139.656  0.00  0.00    -0.026 A 
ATOM     26  C3  T09     1      91.109 118.337 139.546  0.00  0.00    +0.007 A 
ATOM     27  C4  T09     1      90.044 118.641 138.685  0.00  0.00    +0.020 A 
ATOM     28  C5  T09     1      90.085 119.842 137.959  0.00  0.00    +0.111 A 
ATOM     29  N1  T09     1      91.105 120.718 138.057  0.00  0.00    -0.256 NA
ATOM     30  C6  T09     1      92.131 120.433 138.888  0.00  0.00    +0.081 A 
ENDBRANCH  23  30
ENDBRANCH  22  23
ENDBRANCH   1  22
TORSDOF 4
ENDMDL
MODEL 7
REMARK VINA RESULT:    -7.567      2.261      6.749
REMARK INTER + INTRA:         -10.873
REMARK INTER:                  -9.680
REMARK INTRA:                  -1.194
REMARK UNBOUND:                -1.537
REMARK  Name = ligands_pdb/TRN_CHEMBL179474.pdb
REMARK  5 active torsions:
REMARK  status: ('A' for Active; 'I' for Inactive)
REMARK    1  A    between atoms: C1_1  and  C2_2
REMARK    2  A    between atoms: C6_7  and  C7_8
REMARK    3  A    between atoms: C7_8  and  O1_9
REMARK    4  A    between atoms: O1_9  and  C8_10
REMARK    5  A    between atoms: C9_13  and  C10_14
REMARK                            x       y       z     vdW  Elec       q    Type
REMARK                         _______ _______ _______ _____ _____    ______ ____
ROOT
ATOM      1  C8  T09     1      96.407 119.268 140.333  0.00  0.00    +0.237 A 
ATOM      2  N2  T09     1      95.073 119.508 140.286  0.00  0.00    -0.125 NA
ATOM      3  N3  T09     1      94.589 120.149 139.194  0.00  0.00    -0.189 N 
ATOM      4  C9  T09     1      93.344 120.580 138.814  0.00  0.00    +0.185 A 
ATOM      5  N4  T09     1      93.397 121.254 137.602  0.00  0.00    -0.127 NA
ATOM      6  N5  T09     1      94.644 121.267 137.183  0.00  0.00    -0.127 NA
ATOM      7  C16 T09     1      95.327 120.609 138.145  0.00  0.00    +0.182 A 
ATOM      8  C17 T09     1      96.710 120.368 138.175  0.00  0.00    +0.010 A 
ATOM      9  C18 T09     1      97.251 119.686 139.280  0.00  0.00    +0.026 A 
ATOM     10  C19 T09     1      98.765 119.488 139.201  0.00  0.00    +0.025 C 
ATOM     11  C20 T09     1      99.399 120.903 139.067  0.00  0.00    +0.009 C 
ATOM     12  C21 T09     1      98.793 121.662 137.842  0.00  0.00    +0.009 C 
ATOM     13  C22 T09     1      97.736 120.778 137.121  0.00  0.00    +0.023 C 
ATOM     14  C23 T09     1      98.447 119.475 136.657  0.00  0.00    +0.009 C 
ATOM     15  C24 T09     1      99.052 118.714 137.882  0.00  0.00    +0.009 C 
ENDROOT
BRANCH   4  16
ATOM     16  C10 T09     1      92.085 120.397 139.548  0.00  0.00    +0.021 A 
ATOM     17  C11 T09     1      91.909 120.999 140.811  0.00  0.00    +0.011 A 
ATOM     18  C12 T09     1      90.709 120.835 141.523  0.00  0.00    +0.001 A 
ATOM     19  C13 T09     1      89.668 120.068 140.977  0.00  0.00    +0.000 A 
ATOM     20  C14 T09     1      89.827 119.471 139.717  0.00  0.00    +0.001 A 
ATOM     21  C15 T09     1      91.028 119.636 139.007  0.00  0.00    +0.011 A 
ENDBRANCH   4  16
BRANCH   1  22
ATOM     22  O1  T09     1      96.966 118.607 141.404  0.00  0.00    -0.469 OA
BRANCH  22  23
ATOM     23  C7  T09     1      97.137 119.241 142.687  0.00  0.00    +0.286 C 
BRANCH  23  30
ATOM     24  C1  T09     1      95.236 121.572 143.065  0.00  0.00    +0.046 C 
ATOM     25  C2  T09     1      94.963 120.200 143.671  0.00  0.00    -0.026 A 
ATOM     26  C3  T09     1      93.796 119.990 144.429  0.00  0.00    +0.007 A 
ATOM     27  C4  T09     1      93.560 118.720 144.978  0.00  0.00    +0.020 A 
ATOM     28  C5  T09     1      94.499 117.702 144.751  0.00  0.00    +0.111 A 
ATOM     29  N1  T09     1      95.619 117.893 144.026  0.00  0.00    -0.256 NA
ATOM     30  C6  T09     1      95.850 119.112 143.492  0.00  0.00    +0.081 A 
ENDBRANCH  23  30
ENDBRANCH  22  23
ENDBRANCH   1  22
TORSDOF 4
ENDMDL
MODEL 8
REMARK VINA RESULT:    -7.521      4.103      6.896
REMARK INTER + INTRA:         -10.816
REMARK INTER:                 -10.380
REMARK INTRA:                  -0.436
REMARK UNBOUND:                -1.537
REMARK  Name = ligands_pdb/TRN_CHEMBL179474.pdb
REMARK  5 active torsions:
REMARK  status: ('A' for Active; 'I' for Inactive)
REMARK    1  A    between atoms: C1_1  and  C2_2
REMARK    2  A    between atoms: C6_7  and  C7_8
REMARK    3  A    between atoms: C7_8  and  O1_9
REMARK    4  A    between atoms: O1_9  and  C8_10
REMARK    5  A    between atoms: C9_13  and  C10_14
REMARK                            x       y       z     vdW  Elec       q    Type
REMARK                         _______ _______ _______ _____ _____    ______ ____
ROOT
ATOM      1  C8  T09     1      95.009 121.602 138.479  0.00  0.00    +0.237 A 
ATOM      2  N2  T09     1      93.767 121.058 138.502  0.00  0.00    -0.125 NA
ATOM      3  N3  T09     1      93.641 119.804 139.000  0.00  0.00    -0.189 N 
ATOM      4  C9  T09     1      92.587 118.940 139.154  0.00  0.00    +0.185 A 
ATOM      5  N4  T09     1      93.010 117.723 139.670  0.00  0.00    -0.127 NA
ATOM      6  N5  T09     1      94.311 117.778 139.861  0.00  0.00    -0.127 NA
ATOM      7  C16 T09     1      94.657 119.018 139.454  0.00  0.00    +0.182 A 
ATOM      8  C17 T09     1      95.950 119.565 139.440  0.00  0.00    +0.010 A 
ATOM      9  C18 T09     1      96.124 120.873 138.951  0.00  0.00    +0.026 A 
ATOM     10  C19 T09     1      97.574 121.355 138.982  0.00  0.00    +0.025 C 
ATOM     11  C20 T09     1      98.405 120.342 138.142  0.00  0.00    +0.009 C 
ATOM     12  C21 T09     1      98.207 118.888 138.682  0.00  0.00    +0.009 C 
ATOM     13  C22 T09     1      97.238 118.886 139.899  0.00  0.00    +0.023 C 
ATOM     14  C23 T09     1      97.858 119.796 140.999  0.00  0.00    +0.009 C 
ATOM     15  C24 T09     1      98.054 121.251 140.459  0.00  0.00    +0.009 C 
ENDROOT
BRANCH   4  16
ATOM     16  C10 T09     1      91.179 119.198 138.825  0.00  0.00    +0.021 A 
ATOM     17  C11 T09     1      90.174 118.323 139.284  0.00  0.00    +0.011 A 
ATOM     18  C12 T09     1      88.823 118.560 138.979  0.00  0.00    +0.001 A 
ATOM     19  C13 T09     1      88.462 119.680 138.215  0.00  0.00    +0.000 A 
ATOM     20  C14 T09     1      89.452 120.563 137.759  0.00  0.00    +0.001 A 
ATOM     21  C15 T09     1      90.802 120.324 138.064  0.00  0.00    +0.011 A 
ENDBRANCH   4  16
BRANCH   1  22
ATOM     22  O1  T09     1      95.210 122.878 138.001  0.00  0.00    -0.469 OA
BRANCH  22  23
ATOM     23  C7  T09     1      95.385 123.148 136.597  0.00  0.00    +0.286 C 
BRANCH  23  30
ATOM     24  C1  T09     1      97.656 124.936 137.513  0.00  0.00    +0.046 C 
ATOM     25  C2  T09     1      96.431 125.490 136.795  0.00  0.00    -0.026 A 
ATOM     26  C3  T09     1      96.336 126.870 136.537  0.00  0.00    +0.007 A 
ATOM     27  C4  T09     1      95.202 127.363 135.874  0.00  0.00    +0.020 A 
ATOM     28  C5  T09     1      94.199 126.459 135.490  0.00  0.00    +0.111 A 
ATOM     29  N1  T09     1      94.281 125.135 135.731  0.00  0.00    -0.256 NA
ATOM     30  C6  T09     1      95.372 124.654 136.366  0.00  0.00    +0.081 A 
ENDBRANCH  23  30
ENDBRANCH  22  23
ENDBRANCH   1  22
TORSDOF 4
ENDMDL
MODEL 9
REMARK VINA RESULT:    -7.519      2.335      5.102
REMARK INTER + INTRA:         -10.814
REMARK INTER:                  -9.641
REMARK INTRA:                  -1.174
REMARK UNBOUND:                -1.537
REMARK  Name = ligands_pdb/TRN_CHEMBL179474.pdb
REMARK  5 active torsions:
REMARK  status: ('A' for Active; 'I' for Inactive)
REMARK    1  A    between atoms: C1_1  and  C2_2
REMARK    2  A    between atoms: C6_7  and  C7_8
REMARK    3  A    between atoms: C7_8  and  O1_9
REMARK    4  A    between atoms: O1_9  and  C8_10
REMARK    5  A    between atoms: C9_13  and  C10_14
REMARK                            x       y       z     vdW  Elec       q    Type
REMARK                         _______ _______ _______ _____ _____    ______ ____
ROOT
ATOM      1  C8  T09     1      93.988 118.163 143.435  0.00  0.00    +0.237 A 
ATOM      2  N2  T09     1      94.637 118.108 144.625  0.00  0.00    -0.125 NA
ATOM      3  N3  T09     1      95.939 118.489 144.647  0.00  0.00    -0.189 N 
ATOM      4  C9  T09     1      96.902 118.540 145.622  0.00  0.00    +0.185 A 
ATOM      5  N4  T09     1      98.119 118.953 145.100  0.00  0.00    -0.127 NA
ATOM      6  N5  T09     1      97.969 119.177 143.812  0.00  0.00    -0.127 NA
ATOM      7  C16 T09     1      96.672 118.892 143.571  0.00  0.00    +0.182 A 
ATOM      8  C17 T09     1      96.015 118.956 142.332  0.00  0.00    +0.010 A 
ATOM      9  C18 T09     1      94.658 118.591 142.268  0.00  0.00    +0.026 A 
ATOM     10  C19 T09     1      94.057 118.698 140.867  0.00  0.00    +0.025 C 
ATOM     11  C20 T09     1      94.912 117.789 139.937  0.00  0.00    +0.009 C 
ATOM     12  C21 T09     1      96.421 118.192 140.013  0.00  0.00    +0.009 C 
ATOM     13  C22 T09     1      96.619 119.381 140.995  0.00  0.00    +0.023 C 
ATOM     14  C23 T09     1      95.764 120.572 140.475  0.00  0.00    +0.009 C 
ATOM     15  C24 T09     1      94.254 120.170 140.400  0.00  0.00    +0.009 C 
ENDROOT
BRANCH   4  16
ATOM     16  C10 T09     1      96.737 118.204 147.043  0.00  0.00    +0.021 A 
ATOM     17  C11 T09     1      96.414 116.886 147.424  0.00  0.00    +0.011 A 
ATOM     18  C12 T09     1      96.257 116.551 148.780  0.00  0.00    +0.001 A 
ATOM     19  C13 T09     1      96.426 117.531 149.770  0.00  0.00    +0.000 A 
ATOM     20  C14 T09     1      96.756 118.844 149.403  0.00  0.00    +0.001 A 
ATOM     21  C15 T09     1      96.912 119.178 148.047  0.00  0.00    +0.011 A 
ENDBRANCH   4  16
BRANCH   1  22
ATOM     22  O1  T09     1      92.661 117.807 143.341  0.00  0.00    -0.469 OA
BRANCH  22  23
ATOM     23  C7  T09     1      91.601 118.775 143.461  0.00  0.00    +0.286 C 
BRANCH  23  30
ATOM     24  C1  T09     1      91.089 121.500 142.235  0.00  0.00    +0.046 C 
ATOM     25  C2  T09     1      90.668 120.211 141.541  0.00  0.00    -0.026 A 
ATOM     26  C3  T09     1      90.024 120.267 140.291  0.00  0.00    +0.007 A 
ATOM     27  C4  T09     1      89.645 119.070 139.665  0.00  0.00    +0.020 A 
ATOM     28  C5  T09     1      89.921 117.854 140.311  0.00  0.00    +0.111 A 
ATOM     29  N1  T09     1      90.538 117.789 141.508  0.00  0.00    -0.256 NA
ATOM     30  C6  T09     1      90.909 118.938 142.113  0.00  0.00    +0.081 A 
ENDBRANCH  23  30
ENDBRANCH  22  23
ENDBRANCH   1  22
TORSDOF 4
ENDMDL
MODEL 10
REMARK VINA RESULT:    -7.413      2.560      5.518
REMARK INTER + INTRA:         -10.683
REMARK INTER:                  -9.618
REMARK INTRA:                  -1.065
REMARK UNBOUND:                -1.537
REMARK  Name = ligands_pdb/TRN_CHEMBL179474.pdb
REMARK  5 active torsions:
REMARK  status: ('A' for Active; 'I' for Inactive)
REMARK    1  A    between atoms: C1_1  and  C2_2
REMARK    2  A    between atoms: C6_7  and  C7_8
REMARK    3  A    between atoms: C7_8  and  O1_9
REMARK    4  A    between atoms: O1_9  and  C8_10
REMARK    5  A    between atoms: C9_13  and  C10_14
REMARK                            x       y       z     vdW  Elec       q    Type
REMARK                         _______ _______ _______ _____ _____    ______ ____
ROOT
ATOM      1  C8  T09     1      95.486 120.126 138.999  0.00  0.00    +0.237 A 
ATOM      2  N2  T09     1      95.274 119.831 140.306  0.00  0.00    -0.125 NA
ATOM      3  N3  T09     1      96.364 119.606 141.081  0.00  0.00    -0.189 N 
ATOM      4  C9  T09     1      96.543 119.262 142.397  0.00  0.00    +0.185 A 
ATOM      5  N4  T09     1      97.889 119.088 142.687  0.00  0.00    -0.127 NA
ATOM      6  N5  T09     1      98.587 119.315 141.596  0.00  0.00    -0.127 NA
ATOM      7  C16 T09     1      97.659 119.616 140.662  0.00  0.00    +0.182 A 
ATOM      8  C17 T09     1      97.898 119.922 139.312  0.00  0.00    +0.010 A 
ATOM      9  C18 T09     1      96.797 120.184 138.476  0.00  0.00    +0.026 A 
ATOM     10  C19 T09     1      97.182 120.499 137.031  0.00  0.00    +0.025 C 
ATOM     11  C20 T09     1      97.993 119.279 136.503  0.00  0.00    +0.009 C 
ATOM     12  C21 T09     1      99.212 118.986 137.436  0.00  0.00    +0.009 C 
ATOM     13  C22 T09     1      99.254 120.000 138.615  0.00  0.00    +0.023 C 
ATOM     14  C23 T09     1      99.364 121.427 138.006  0.00  0.00    +0.009 C 
ATOM     15  C24 T09     1      98.143 121.722 137.075  0.00  0.00    +0.009 C 
ENDROOT
BRANCH   4  16
ATOM     16  C10 T09     1      95.497 119.076 143.411  0.00  0.00    +0.021 A 
ATOM     17  C11 T09     1      94.669 120.156 143.779  0.00  0.00    +0.011 A 
ATOM     18  C12 T09     1      93.663 119.991 144.745  0.00  0.00    +0.001 A 
ATOM     19  C13 T09     1      93.470 118.741 145.352  0.00  0.00    +0.000 A 
ATOM     20  C14 T09     1      94.281 117.656 144.988  0.00  0.00    +0.001 A 
ATOM     21  C15 T09     1      95.288 117.823 144.022  0.00  0.00    +0.011 A 
ENDBRANCH   4  16
BRANCH   1  22
ATOM     22  O1  T09     1      94.428 120.382 138.155  0.00  0.00    -0.469 OA
BRANCH  22  23
ATOM     23  C7  T09     1      93.276 121.134 138.582  0.00  0.00    +0.286 C 
BRANCH  23  30
ATOM     24  C1  T09     1      92.500 121.996 141.383  0.00  0.00    +0.046 C 
ATOM     25  C2  T09     1      92.047 120.666 140.793  0.00  0.00    -0.026 A 
ATOM     26  C3  T09     1      91.241 119.800 141.556  0.00  0.00    +0.007 A 
ATOM     27  C4  T09     1      90.833 118.580 140.996  0.00  0.00    +0.020 A 
ATOM     28  C5  T09     1      91.244 118.265 139.691  0.00  0.00    +0.111 A 
ATOM     29  N1  T09     1      92.015 119.087 138.952  0.00  0.00    -0.256 NA
ATOM     30  C6  T09     1      92.408 120.265 139.484  0.00  0.00    +0.081 A 
ENDBRANCH  23  30
ENDBRANCH  22  23
ENDBRANCH   1  22
TORSDOF 4
ENDMDL
