MODEL 1
REMARK VINA RESULT:    -8.932      0.000      0.000
REMARK INTER + INTRA:         -12.855
REMARK INTER:                 -11.543
REMARK INTRA:                  -1.313
REMARK UNBOUND:                -1.313
REMARK  Name = ligands_pdb/TRN_CHEMBL120838.pdb
REMARK  6 active torsions:
REMARK  status: ('A' for Active; 'I' for Inactive)
REMARK    1  A    between atoms: C1_1  and  C2_2
REMARK    2  A    between atoms: C3_5  and  C4_6
REMARK    3  A    between atoms: C8_12  and  O2_13
REMARK    4  A    between atoms: O2_13  and  C9_14
REMARK    5  A    between atoms: C9_14  and  C10_15
REMARK    6  A    between atoms: C15_20  and  C16_21
REMARK                            x       y       z     vdW  Elec       q    Type
REMARK                         _______ _______ _______ _____ _____    ______ ____
ROOT
ATOM      1  C4  T01     1      94.351 118.842 145.408  0.00  0.00    +0.243 A 
ATOM      2  N2  T01     1      93.056 119.048 145.614  0.00  0.00    -0.122 NA
ATOM      3  N3  T01     1      92.473 119.268 144.387  0.00  0.00    -0.127 NA
ATOM      4  C5  T01     1      93.460 119.179 143.520  0.00  0.00    +0.182 A 
ATOM      5  C6  T01     1      93.348 119.335 142.112  0.00  0.00    +0.010 A 
ATOM      6  C7  T01     1      94.530 119.196 141.420  0.00  0.00    +0.026 A 
ATOM      7  C8  T01     1      95.727 118.923 142.080  0.00  0.00    +0.237 A 
ATOM      8  N5  T01     1      95.870 118.769 143.410  0.00  0.00    -0.125 NA
ATOM      9  N6  T01     1      94.679 118.914 144.072  0.00  0.00    -0.185 N 
ATOM     10  C17 T01     1      94.352 119.370 139.923  0.00  0.00    +0.025 C 
ATOM     11  C18 T01     1      93.730 120.782 139.699  0.00  0.00    +0.009 C 
ATOM     12  C19 T01     1      92.403 120.934 140.514  0.00  0.00    +0.009 C 
ATOM     13  C20 T01     1      92.105 119.630 141.309  0.00  0.00    +0.023 C 
ATOM     14  C21 T01     1      91.973 118.473 140.277  0.00  0.00    +0.009 C 
ATOM     15  C22 T01     1      93.299 118.318 139.461  0.00  0.00    +0.009 C 
ENDROOT
BRANCH   1  20
ATOM     16  C1  T01     1      97.258 116.598 148.593  0.00  0.00    +0.091 C 
ATOM     17  C2  T01     1      96.472 117.651 147.861  0.00  0.00    +0.169 A 
ATOM     18  N1  T01     1      96.478 118.920 148.251  0.00  0.00    -0.061 NA
ATOM     19  O1  T01     1      95.638 119.580 147.335  0.00  0.00    -0.329 OA
ATOM     20  C3  T01     1      95.242 118.581 146.511  0.00  0.00    +0.298 A 
ATOM     21  N7  T01     1      95.735 117.436 146.821  0.00  0.00    -0.189 NA
ENDBRANCH   1  20
BRANCH   7  22
ATOM     22  O2  T01     1      96.864 118.796 141.318  0.00  0.00    -0.470 OA
BRANCH  22  23
ATOM     23  C9  T01     1      97.978 119.712 141.412  0.00  0.00    +0.267 C 
BRANCH  23  24
ATOM     24  C10 T01     1      98.172 120.510 140.118  0.00  0.00    +0.007 A 
ATOM     25  C11 T01     1      97.295 121.560 139.767  0.00  0.00    +0.008 A 
ATOM     26  C12 T01     1      97.481 122.285 138.580  0.00  0.00    +0.000 A 
ATOM     27  C13 T01     1      98.547 121.971 137.724  0.00  0.00    +0.001 A 
ATOM     28  C14 T01     1      99.426 120.931 138.059  0.00  0.00    +0.019 A 
ATOM     29  C15 T01     1      99.245 120.200 139.248  0.00  0.00    +0.058 A 
BRANCH  29  30
ATOM     30  C16 T01     1     100.171 119.143 139.550  0.00  0.00    +0.100 C 
ATOM     31  N4  T01     1     100.910 118.291 139.803  0.00  0.00    -0.191 NA
ENDBRANCH  29  30
ENDBRANCH  23  24
ENDBRANCH  22  23
ENDBRANCH   7  22
TORSDOF 5
ENDMDL
MODEL 2
REMARK VINA RESULT:    -8.914      1.714      2.092
REMARK INTER + INTRA:         -12.833
REMARK INTER:                 -11.064
REMARK INTRA:                  -1.769
REMARK UNBOUND:                -1.313
REMARK  Name = ligands_pdb/TRN_CHEMBL120838.pdb
REMARK  6 active torsions:
REMARK  status: ('A' for Active; 'I' for Inactive)
REMARK    1  A    between atoms: C1_1  and  C2_2
REMARK    2  A    between atoms: C3_5  and  C4_6
REMARK    3  A    between atoms: C8_12  and  O2_13
REMARK    4  A    between atoms: O2_13  and  C9_14
REMARK    5  A    between atoms: C9_14  and  C10_15
REMARK    6  A    between atoms: C15_20  and  C16_21
REMARK                            x       y       z     vdW  Elec       q    Type
REMARK                         _______ _______ _______ _____ _____    ______ ____
ROOT
ATOM      1  C4  T01     1      94.303 118.556 144.819  0.00  0.00    +0.243 A 
ATOM      2  N2  T01     1      93.237 117.778 144.670  0.00  0.00    -0.122 NA
ATOM      3  N3  T01     1      92.707 118.038 143.427  0.00  0.00    -0.127 NA
ATOM      4  C5  T01     1      93.492 118.960 142.908  0.00  0.00    +0.182 A 
ATOM      5  C6  T01     1      93.345 119.552 141.624  0.00  0.00    +0.010 A 
ATOM      6  C7  T01     1      94.296 120.495 141.311  0.00  0.00    +0.026 A 
ATOM      7  C8  T01     1      95.315 120.821 142.207  0.00  0.00    +0.237 A 
ATOM      8  N5  T01     1      95.484 120.281 143.428  0.00  0.00    -0.125 NA
ATOM      9  N6  T01     1      94.522 119.347 143.713  0.00  0.00    -0.185 N 
ATOM     10  C17 T01     1      94.092 121.093 139.931  0.00  0.00    +0.025 C 
ATOM     11  C18 T01     1      92.660 121.709 139.908  0.00  0.00    +0.009 C 
ATOM     12  C19 T01     1      91.593 120.632 140.294  0.00  0.00    +0.009 C 
ATOM     13  C20 T01     1      92.283 119.268 140.590  0.00  0.00    +0.023 C 
ATOM     14  C21 T01     1      93.041 118.838 139.301  0.00  0.00    +0.009 C 
ATOM     15  C22 T01     1      94.109 119.913 138.914  0.00  0.00    +0.009 C 
ENDROOT
BRANCH   1  20
ATOM     16  C1  T01     1      97.060 117.013 148.512  0.00  0.00    +0.091 C 
ATOM     17  C2  T01     1      96.247 117.883 147.594  0.00  0.00    +0.169 A 
ATOM     18  N1  T01     1      96.057 119.173 147.844  0.00  0.00    -0.061 NA
ATOM     19  O1  T01     1      95.259 119.631 146.780  0.00  0.00    -0.329 OA
ATOM     20  C3  T01     1      95.083 118.517 146.030  0.00  0.00    +0.298 A 
ATOM     21  N7  T01     1      95.667 117.479 146.511  0.00  0.00    -0.189 NA
ENDBRANCH   1  20
BRANCH   7  22
ATOM     22  O2  T01     1      96.228 121.772 141.819  0.00  0.00    -0.470 OA
BRANCH  22  23
ATOM     23  C9  T01     1      97.578 121.446 141.420  0.00  0.00    +0.267 C 
BRANCH  23  24
ATOM     24  C10 T01     1      97.607 120.573 140.161  0.00  0.00    +0.007 A 
ATOM     25  C11 T01     1      97.469 119.169 140.239  0.00  0.00    +0.008 A 
ATOM     26  C12 T01     1      97.496 118.378 139.080  0.00  0.00    +0.000 A 
ATOM     27  C13 T01     1      97.664 118.978 137.824  0.00  0.00    +0.001 A 
ATOM     28  C14 T01     1      97.804 120.370 137.730  0.00  0.00    +0.019 A 
ATOM     29  C15 T01     1      97.776 121.169 138.888  0.00  0.00    +0.058 A 
BRANCH  29  30
ATOM     30  C16 T01     1      97.923 122.592 138.743  0.00  0.00    +0.100 C 
ATOM     31  N4  T01     1      98.051 123.735 138.622  0.00  0.00    -0.191 NA
ENDBRANCH  29  30
ENDBRANCH  23  24
ENDBRANCH  22  23
ENDBRANCH   7  22
TORSDOF 5
ENDMDL
MODEL 3
REMARK VINA RESULT:    -8.796      1.502      1.648
REMARK INTER + INTRA:         -12.680
REMARK INTER:                 -11.154
REMARK INTRA:                  -1.526
REMARK UNBOUND:                -1.313
REMARK  Name = ligands_pdb/TRN_CHEMBL120838.pdb
REMARK  6 active torsions:
REMARK  status: ('A' for Active; 'I' for Inactive)
REMARK    1  A    between atoms: C1_1  and  C2_2
REMARK    2  A    between atoms: C3_5  and  C4_6
REMARK    3  A    between atoms: C8_12  and  O2_13
REMARK    4  A    between atoms: O2_13  and  C9_14
REMARK    5  A    between atoms: C9_14  and  C10_15
REMARK    6  A    between atoms: C15_20  and  C16_21
REMARK                            x       y       z     vdW  Elec       q    Type
REMARK                         _______ _______ _______ _____ _____    ______ ____
ROOT
ATOM      1  C4  T01     1      94.121 118.602 144.844  0.00  0.00    +0.243 A 
ATOM      2  N2  T01     1      92.988 117.909 144.821  0.00  0.00    -0.122 NA
ATOM      3  N3  T01     1      92.376 118.160 143.614  0.00  0.00    -0.127 NA
ATOM      4  C5  T01     1      93.184 118.991 142.989  0.00  0.00    +0.182 A 
ATOM      5  C6  T01     1      92.976 119.539 141.694  0.00  0.00    +0.010 A 
ATOM      6  C7  T01     1      93.969 120.387 141.259  0.00  0.00    +0.026 A 
ATOM      7  C8  T01     1      95.082 120.664 142.052  0.00  0.00    +0.237 A 
ATOM      8  N5  T01     1      95.312 120.164 143.280  0.00  0.00    -0.125 NA
ATOM      9  N6  T01     1      94.307 119.325 143.687  0.00  0.00    -0.185 N 
ATOM     10  C17 T01     1      93.696 120.942 139.873  0.00  0.00    +0.025 C 
ATOM     11  C18 T01     1      92.320 121.672 139.937  0.00  0.00    +0.009 C 
ATOM     12  C19 T01     1      91.208 120.703 140.459  0.00  0.00    +0.009 C 
ATOM     13  C20 T01     1      91.811 119.301 140.764  0.00  0.00    +0.023 C 
ATOM     14  C21 T01     1      92.421 118.756 139.440  0.00  0.00    +0.009 C 
ATOM     15  C22 T01     1      93.534 119.723 138.916  0.00  0.00    +0.009 C 
ENDROOT
BRANCH   1  20
ATOM     16  C1  T01     1      97.144 117.013 148.302  0.00  0.00    +0.091 C 
ATOM     17  C2  T01     1      96.273 117.896 147.453  0.00  0.00    +0.169 A 
ATOM     18  N1  T01     1      96.121 119.188 147.719  0.00  0.00    -0.061 NA
ATOM     19  O1  T01     1      95.246 119.659 146.724  0.00  0.00    -0.329 OA
ATOM     20  C3  T01     1      94.995 118.549 145.989  0.00  0.00    +0.298 A 
ATOM     21  N7  T01     1      95.602 117.502 146.420  0.00  0.00    -0.189 NA
ENDBRANCH   1  20
BRANCH   7  22
ATOM     22  O2  T01     1      96.031 121.519 141.546  0.00  0.00    -0.470 OA
BRANCH  22  23
ATOM     23  C9  T01     1      97.370 121.094 141.207  0.00  0.00    +0.267 C 
BRANCH  23  24
ATOM     24  C10 T01     1      97.607 121.105 139.692  0.00  0.00    +0.007 A 
ATOM     25  C11 T01     1      98.131 122.244 139.042  0.00  0.00    +0.008 A 
ATOM     26  C12 T01     1      98.344 122.244 137.654  0.00  0.00    +0.000 A 
ATOM     27  C13 T01     1      98.035 121.107 136.895  0.00  0.00    +0.001 A 
ATOM     28  C14 T01     1      97.513 119.968 137.527  0.00  0.00    +0.019 A 
ATOM     29  C15 T01     1      97.297 119.961 138.918  0.00  0.00    +0.058 A 
BRANCH  29  30
ATOM     30  C16 T01     1      96.761 118.772 139.522  0.00  0.00    +0.100 C 
ATOM     31  N4  T01     1      96.324 117.822 140.016  0.00  0.00    -0.191 NA
ENDBRANCH  29  30
ENDBRANCH  23  24
ENDBRANCH  22  23
ENDBRANCH   7  22
TORSDOF 5
ENDMDL
MODEL 4
REMARK VINA RESULT:    -8.529      2.317      5.254
REMARK INTER + INTRA:         -12.335
REMARK INTER:                 -10.588
REMARK INTRA:                  -1.747
REMARK UNBOUND:                -1.313
REMARK  Name = ligands_pdb/TRN_CHEMBL120838.pdb
REMARK  6 active torsions:
REMARK  status: ('A' for Active; 'I' for Inactive)
REMARK    1  A    between atoms: C1_1  and  C2_2
REMARK    2  A    between atoms: C3_5  and  C4_6
REMARK    3  A    between atoms: C8_12  and  O2_13
REMARK    4  A    between atoms: O2_13  and  C9_14
REMARK    5  A    between atoms: C9_14  and  C10_15
REMARK    6  A    between atoms: C15_20  and  C16_21
REMARK                            x       y       z     vdW  Elec       q    Type
REMARK                         _______ _______ _______ _____ _____    ______ ____
ROOT
ATOM      1  C4  T01     1      96.744 118.616 145.284  0.00  0.00    +0.243 A 
ATOM      2  N2  T01     1      97.945 118.952 144.828  0.00  0.00    -0.122 NA
ATOM      3  N3  T01     1      97.831 119.143 143.470  0.00  0.00    -0.127 NA
ATOM      4  C5  T01     1      96.564 118.909 143.198  0.00  0.00    +0.182 A 
ATOM      5  C6  T01     1      95.961 118.981 141.912  0.00  0.00    +0.010 A 
ATOM      6  C7  T01     1      94.617 118.689 141.889  0.00  0.00    +0.026 A 
ATOM      7  C8  T01     1      93.928 118.352 143.053  0.00  0.00    +0.237 A 
ATOM      8  N5  T01     1      94.466 118.274 144.285  0.00  0.00    -0.125 NA
ATOM      9  N6  T01     1      95.805 118.569 144.278  0.00  0.00    -0.185 N 
ATOM     10  C17 T01     1      94.025 118.782 140.494  0.00  0.00    +0.025 C 
ATOM     11  C18 T01     1      94.832 117.801 139.590  0.00  0.00    +0.009 C 
ATOM     12  C19 T01     1      96.360 118.128 139.650  0.00  0.00    +0.009 C 
ATOM     13  C20 T01     1      96.618 119.334 140.600  0.00  0.00    +0.023 C 
ATOM     14  C21 T01     1      95.828 120.551 140.036  0.00  0.00    +0.009 C 
ATOM     15  C22 T01     1      94.299 120.226 139.976  0.00  0.00    +0.009 C 
ENDROOT
BRANCH   1  20
ATOM     16  C1  T01     1      97.097 118.717 150.130  0.00  0.00    +0.091 C 
ATOM     17  C2  T01     1      96.670 118.377 148.730  0.00  0.00    +0.169 A 
ATOM     18  N1  T01     1      95.728 117.473 148.490  0.00  0.00    -0.061 NA
ATOM     19  O1  T01     1      95.617 117.435 147.087  0.00  0.00    -0.329 OA
ATOM     20  C3  T01     1      96.536 118.345 146.684  0.00  0.00    +0.298 A 
ATOM     21  N7  T01     1      97.162 118.905 147.657  0.00  0.00    -0.189 NA
ENDBRANCH   1  20
BRANCH   7  22
ATOM     22  O2  T01     1      92.587 118.076 142.947  0.00  0.00    -0.470 OA
BRANCH  22  23
ATOM     23  C9  T01     1      91.560 118.985 143.402  0.00  0.00    +0.267 C 
BRANCH  23  24
ATOM     24  C10 T01     1      91.395 120.180 142.457  0.00  0.00    +0.007 A 
ATOM     25  C11 T01     1      92.018 121.419 142.729  0.00  0.00    +0.008 A 
ATOM     26  C12 T01     1      91.861 122.508 141.857  0.00  0.00    +0.000 A 
ATOM     27  C13 T01     1      91.078 122.377 140.702  0.00  0.00    +0.001 A 
ATOM     28  C14 T01     1      90.452 121.154 140.419  0.00  0.00    +0.019 A 
ATOM     29  C15 T01     1      90.606 120.057 141.288  0.00  0.00    +0.058 A 
BRANCH  29  30
ATOM     30  C16 T01     1      89.947 118.824 140.958  0.00  0.00    +0.100 C 
ATOM     31  N4  T01     1      89.416 117.828 140.703  0.00  0.00    -0.191 NA
ENDBRANCH  29  30
ENDBRANCH  23  24
ENDBRANCH  22  23
ENDBRANCH   7  22
TORSDOF 5
ENDMDL
MODEL 5
REMARK VINA RESULT:    -8.464      4.704      8.730
REMARK INTER + INTRA:         -12.251
REMARK INTER:                 -10.433
REMARK INTRA:                  -1.818
REMARK UNBOUND:                -1.313
REMARK  Name = ligands_pdb/TRN_CHEMBL120838.pdb
REMARK  6 active torsions:
REMARK  status: ('A' for Active; 'I' for Inactive)
REMARK    1  A    between atoms: C1_1  and  C2_2
REMARK    2  A    between atoms: C3_5  and  C4_6
REMARK    3  A    between atoms: C8_12  and  O2_13
REMARK    4  A    between atoms: O2_13  and  C9_14
REMARK    5  A    between atoms: C9_14  and  C10_15
REMARK    6  A    between atoms: C15_20  and  C16_21
REMARK                            x       y       z     vdW  Elec       q    Type
REMARK                         _______ _______ _______ _____ _____    ______ ____
ROOT
ATOM      1  C4  T01     1      97.226 124.954 137.416  0.00  0.00    +0.243 A 
ATOM      2  N2  T01     1      98.523 125.045 137.143  0.00  0.00    -0.122 NA
ATOM      3  N3  T01     1      99.059 123.784 137.266  0.00  0.00    -0.127 NA
ATOM      4  C5  T01     1      98.046 123.015 137.607  0.00  0.00    +0.182 A 
ATOM      5  C6  T01     1      98.108 121.615 137.850  0.00  0.00    +0.010 A 
ATOM      6  C7  T01     1      96.908 121.036 138.194  0.00  0.00    +0.026 A 
ATOM      7  C8  T01     1      95.740 121.791 138.288  0.00  0.00    +0.237 A 
ATOM      8  N5  T01     1      95.645 123.115 138.065  0.00  0.00    -0.125 NA
ATOM      9  N6  T01     1      96.854 123.665 137.725  0.00  0.00    -0.185 N 
ATOM     10  C17 T01     1      97.032 119.543 138.441  0.00  0.00    +0.025 C 
ATOM     11  C18 T01     1      98.094 119.353 139.567  0.00  0.00    +0.009 C 
ATOM     12  C19 T01     1      99.442 120.042 139.173  0.00  0.00    +0.009 C 
ATOM     13  C20 T01     1      99.317 120.715 137.775  0.00  0.00    +0.023 C 
ATOM     14  C21 T01     1      98.962 119.600 136.749  0.00  0.00    +0.009 C 
ATOM     15  C22 T01     1      97.613 118.911 137.141  0.00  0.00    +0.009 C 
ENDROOT
BRANCH   1  20
ATOM     16  C1  T01     1      94.581 128.709 135.827  0.00  0.00    +0.091 C 
ATOM     17  C2  T01     1      95.258 127.706 136.719  0.00  0.00    +0.169 A 
ATOM     18  N1  T01     1      95.145 127.763 138.041  0.00  0.00    -0.061 NA
ATOM     19  O1  T01     1      95.909 126.679 138.513  0.00  0.00    -0.329 OA
ATOM     20  C3  T01     1      96.380 126.120 137.373  0.00  0.00    +0.298 A 
ATOM     21  N7  T01     1      95.995 126.727 136.308  0.00  0.00    -0.189 NA
ENDBRANCH   1  20
BRANCH   7  22
ATOM     22  O2  T01     1      94.582 121.138 138.635  0.00  0.00    -0.470 OA
BRANCH  22  23
ATOM     23  C9  T01     1      93.996 121.227 139.953  0.00  0.00    +0.267 C 
BRANCH  23  24
ATOM     24  C10 T01     1      94.760 120.379 140.976  0.00  0.00    +0.007 A 
ATOM     25  C11 T01     1      95.662 120.970 141.889  0.00  0.00    +0.008 A 
ATOM     26  C12 T01     1      96.357 120.185 142.822  0.00  0.00    +0.000 A 
ATOM     27  C13 T01     1      96.163 118.797 142.856  0.00  0.00    +0.001 A 
ATOM     28  C14 T01     1      95.272 118.196 141.955  0.00  0.00    +0.019 A 
ATOM     29  C15 T01     1      94.571 118.977 141.018  0.00  0.00    +0.058 A 
BRANCH  29  30
ATOM     30  C16 T01     1      93.668 118.317 140.115  0.00  0.00    +0.100 C 
ATOM     31  N4  T01     1      92.937 117.796 139.386  0.00  0.00    -0.191 NA
ENDBRANCH  29  30
ENDBRANCH  23  24
ENDBRANCH  22  23
ENDBRANCH   7  22
TORSDOF 5
ENDMDL
MODEL 6
REMARK VINA RESULT:    -8.315      2.854      7.442
REMARK INTER + INTRA:         -12.058
REMARK INTER:                 -10.235
REMARK INTRA:                  -1.824
REMARK UNBOUND:                -1.313
REMARK  Name = ligands_pdb/TRN_CHEMBL120838.pdb
REMARK  6 active torsions:
REMARK  status: ('A' for Active; 'I' for Inactive)
REMARK    1  A    between atoms: C1_1  and  C2_2
REMARK    2  A    between atoms: C3_5  and  C4_6
REMARK    3  A    between atoms: C8_12  and  O2_13
REMARK    4  A    between atoms: O2_13  and  C9_14
REMARK    5  A    between atoms: C9_14  and  C10_15
REMARK    6  A    between atoms: C15_20  and  C16_21
REMARK                            x       y       z     vdW  Elec       q    Type
REMARK                         _______ _______ _______ _____ _____    ______ ____
ROOT
ATOM      1  C4  T01     1      97.551 119.337 140.737  0.00  0.00    +0.243 A 
ATOM      2  N2  T01     1      98.480 119.405 141.683  0.00  0.00    -0.122 NA
ATOM      3  N3  T01     1      97.859 119.169 142.888  0.00  0.00    -0.127 NA
ATOM      4  C5  T01     1      96.592 118.973 142.586  0.00  0.00    +0.182 A 
ATOM      5  C6  T01     1      95.549 118.691 143.510  0.00  0.00    +0.010 A 
ATOM      6  C7  T01     1      94.305 118.527 142.944  0.00  0.00    +0.026 A 
ATOM      7  C8  T01     1      94.116 118.636 141.567  0.00  0.00    +0.237 A 
ATOM      8  N5  T01     1      95.079 118.902 140.664  0.00  0.00    -0.125 NA
ATOM      9  N6  T01     1      96.305 119.060 141.256  0.00  0.00    -0.185 N 
ATOM     10  C17 T01     1      93.232 118.228 143.975  0.00  0.00    +0.025 C 
ATOM     11  C18 T01     1      93.237 119.406 144.995  0.00  0.00    +0.009 C 
ATOM     12  C19 T01     1      94.664 119.597 145.607  0.00  0.00    +0.009 C 
ATOM     13  C20 T01     1      95.653 118.555 145.009  0.00  0.00    +0.023 C 
ATOM     14  C21 T01     1      95.104 117.139 145.353  0.00  0.00    +0.009 C 
ATOM     15  C22 T01     1      93.678 116.946 144.740  0.00  0.00    +0.009 C 
ENDROOT
BRANCH   1  20
ATOM     16  C1  T01     1      98.451 121.429 136.443  0.00  0.00    +0.091 C 
ATOM     17  C2  T01     1      98.277 120.409 137.534  0.00  0.00    +0.169 A 
ATOM     18  N1  T01     1      98.471 119.114 137.314  0.00  0.00    -0.061 NA
ATOM     19  O1  T01     1      98.212 118.497 138.552  0.00  0.00    -0.329 OA
ATOM     20  C3  T01     1      97.892 119.543 139.351  0.00  0.00    +0.298 A 
ATOM     21  N7  T01     1      97.929 120.677 138.750  0.00  0.00    -0.189 NA
ENDBRANCH   1  20
BRANCH   7  22
ATOM     22  O2  T01     1      92.844 118.457 141.079  0.00  0.00    -0.470 OA
BRANCH  22  23
ATOM     23  C9  T01     1      91.992 119.557 140.689  0.00  0.00    +0.267 C 
BRANCH  23  24
ATOM     24  C10 T01     1      91.009 119.941 141.801  0.00  0.00    +0.007 A 
ATOM     25  C11 T01     1      89.895 119.128 142.106  0.00  0.00    +0.008 A 
ATOM     26  C12 T01     1      89.001 119.489 143.126  0.00  0.00    +0.000 A 
ATOM     27  C13 T01     1      89.206 120.667 143.857  0.00  0.00    +0.001 A 
ATOM     28  C14 T01     1      90.308 121.484 143.566  0.00  0.00    +0.019 A 
ATOM     29  C15 T01     1      91.209 121.129 142.545  0.00  0.00    +0.058 A 
BRANCH  29  30
ATOM     30  C16 T01     1      92.324 121.997 142.281  0.00  0.00    +0.100 C 
ATOM     31  N4  T01     1      93.228 122.687 142.071  0.00  0.00    -0.191 NA
ENDBRANCH  29  30
ENDBRANCH  23  24
ENDBRANCH  22  23
ENDBRANCH   7  22
TORSDOF 5
ENDMDL
MODEL 7
REMARK VINA RESULT:    -8.284      2.256      5.051
REMARK INTER + INTRA:         -12.018
REMARK INTER:                 -10.285
REMARK INTRA:                  -1.733
REMARK UNBOUND:                -1.313
REMARK  Name = ligands_pdb/TRN_CHEMBL120838.pdb
REMARK  6 active torsions:
REMARK  status: ('A' for Active; 'I' for Inactive)
REMARK    1  A    between atoms: C1_1  and  C2_2
REMARK    2  A    between atoms: C3_5  and  C4_6
REMARK    3  A    between atoms: C8_12  and  O2_13
REMARK    4  A    between atoms: O2_13  and  C9_14
REMARK    5  A    between atoms: C9_14  and  C10_15
REMARK    6  A    between atoms: C15_20  and  C16_21
REMARK                            x       y       z     vdW  Elec       q    Type
REMARK                         _______ _______ _______ _____ _____    ______ ____
ROOT
ATOM      1  C4  T01     1      96.730 118.854 145.191  0.00  0.00    +0.243 A 
ATOM      2  N2  T01     1      97.950 118.952 144.677  0.00  0.00    -0.122 NA
ATOM      3  N3  T01     1      97.821 118.970 143.308  0.00  0.00    -0.127 NA
ATOM      4  C5  T01     1      96.526 118.881 143.087  0.00  0.00    +0.182 A 
ATOM      5  C6  T01     1      95.898 118.860 141.811  0.00  0.00    +0.010 A 
ATOM      6  C7  T01     1      94.526 118.760 141.845  0.00  0.00    +0.026 A 
ATOM      7  C8  T01     1      93.835 118.686 143.054  0.00  0.00    +0.237 A 
ATOM      8  N5  T01     1      94.396 118.703 144.278  0.00  0.00    -0.125 NA
ATOM      9  N6  T01     1      95.761 118.803 144.213  0.00  0.00    -0.185 N 
ATOM     10  C17 T01     1      93.909 118.743 140.459  0.00  0.00    +0.025 C 
ATOM     11  C18 T01     1      94.543 117.544 139.691  0.00  0.00    +0.009 C 
ATOM     12  C19 T01     1      96.103 117.658 139.686  0.00  0.00    +0.009 C 
ATOM     13  C20 T01     1      96.555 118.934 140.455  0.00  0.00    +0.023 C 
ATOM     14  C21 T01     1      95.923 120.161 139.735  0.00  0.00    +0.009 C 
ATOM     15  C22 T01     1      94.362 120.050 139.740  0.00  0.00    +0.009 C 
ENDROOT
BRANCH   1  20
ATOM     16  C1  T01     1      97.206 117.794 149.910  0.00  0.00    +0.091 C 
ATOM     17  C2  T01     1      96.719 118.375 148.612  0.00  0.00    +0.169 A 
ATOM     18  N1  T01     1      95.687 119.209 148.567  0.00  0.00    -0.061 NA
ATOM     19  O1  T01     1      95.539 119.523 147.204  0.00  0.00    -0.329 OA
ATOM     20  C3  T01     1      96.531 118.810 146.618  0.00  0.00    +0.298 A 
ATOM     21  N7  T01     1      97.231 118.128 147.452  0.00  0.00    -0.189 NA
ENDBRANCH   1  20
BRANCH   7  22
ATOM     22  O2  T01     1      92.465 118.590 143.004  0.00  0.00    -0.470 OA
BRANCH  22  23
ATOM     23  C9  T01     1      91.588 119.678 143.369  0.00  0.00    +0.267 C 
BRANCH  23  24
ATOM     24  C10 T01     1      91.053 120.419 142.137  0.00  0.00    +0.007 A 
ATOM     25  C11 T01     1      89.902 119.968 141.455  0.00  0.00    +0.008 A 
ATOM     26  C12 T01     1      89.420 120.653 140.328  0.00  0.00    +0.000 A 
ATOM     27  C13 T01     1      90.084 121.798 139.865  0.00  0.00    +0.001 A 
ATOM     28  C14 T01     1      91.229 122.257 140.531  0.00  0.00    +0.019 A 
ATOM     29  C15 T01     1      91.717 121.576 141.662  0.00  0.00    +0.058 A 
BRANCH  29  30
ATOM     30  C16 T01     1      92.893 122.083 142.313  0.00  0.00    +0.100 C 
ATOM     31  N4  T01     1      93.846 122.483 142.832  0.00  0.00    -0.191 NA
ENDBRANCH  29  30
ENDBRANCH  23  24
ENDBRANCH  22  23
ENDBRANCH   7  22
TORSDOF 5
ENDMDL
MODEL 8
REMARK VINA RESULT:    -8.090      3.000      7.451
REMARK INTER + INTRA:         -11.767
REMARK INTER:                  -9.909
REMARK INTRA:                  -1.857
REMARK UNBOUND:                -1.313
REMARK  Name = ligands_pdb/TRN_CHEMBL120838.pdb
REMARK  6 active torsions:
REMARK  status: ('A' for Active; 'I' for Inactive)
REMARK    1  A    between atoms: C1_1  and  C2_2
REMARK    2  A    between atoms: C3_5  and  C4_6
REMARK    3  A    between atoms: C8_12  and  O2_13
REMARK    4  A    between atoms: O2_13  and  C9_14
REMARK    5  A    between atoms: C9_14  and  C10_15
REMARK    6  A    between atoms: C15_20  and  C16_21
REMARK                            x       y       z     vdW  Elec       q    Type
REMARK                         _______ _______ _______ _____ _____    ______ ____
ROOT
ATOM      1  C4  T01     1      97.220 120.682 140.502  0.00  0.00    +0.243 A 
ATOM      2  N2  T01     1      98.026 119.643 140.690  0.00  0.00    -0.122 NA
ATOM      3  N3  T01     1      97.558 118.953 141.785  0.00  0.00    -0.127 NA
ATOM      4  C5  T01     1      96.498 119.624 142.184  0.00  0.00    +0.182 A 
ATOM      5  C6  T01     1      95.671 119.294 143.292  0.00  0.00    +0.010 A 
ATOM      6  C7  T01     1      94.620 120.156 143.506  0.00  0.00    +0.026 A 
ATOM      7  C8  T01     1      94.410 121.260 142.680  0.00  0.00    +0.237 A 
ATOM      8  N5  T01     1      95.172 121.603 141.624  0.00  0.00    -0.125 NA
ATOM      9  N6  T01     1      96.210 120.728 141.436  0.00  0.00    -0.185 N 
ATOM     10  C17 T01     1      93.771 119.756 144.698  0.00  0.00    +0.025 C 
ATOM     11  C18 T01     1      94.718 119.704 145.936  0.00  0.00    +0.009 C 
ATOM     12  C19 T01     1      95.922 118.741 145.666  0.00  0.00    +0.009 C 
ATOM     13  C20 T01     1      95.815 118.128 144.240  0.00  0.00    +0.023 C 
ATOM     14  C21 T01     1      94.472 117.345 144.167  0.00  0.00    +0.009 C 
ATOM     15  C22 T01     1      93.267 118.305 144.435  0.00  0.00    +0.009 C 
ENDROOT
BRANCH   1  20
ATOM     16  C1  T01     1      99.358 123.272 136.989  0.00  0.00    +0.091 C 
ATOM     17  C2  T01     1      98.335 122.706 137.934  0.00  0.00    +0.169 A 
ATOM     18  N1  T01     1      97.070 123.108 137.912  0.00  0.00    -0.061 NA
ATOM     19  O1  T01     1      96.440 122.363 138.927  0.00  0.00    -0.329 OA
ATOM     20  C3  T01     1      97.450 121.607 139.420  0.00  0.00    +0.298 A 
ATOM     21  N7  T01     1      98.575 121.809 138.833  0.00  0.00    -0.189 NA
ENDBRANCH   1  20
BRANCH   7  22
ATOM     22  O2  T01     1      93.338 122.073 142.958  0.00  0.00    -0.470 OA
BRANCH  22  23
ATOM     23  C9  T01     1      92.148 122.109 142.140  0.00  0.00    +0.267 C 
BRANCH  23  24
ATOM     24  C10 T01     1      91.232 120.909 142.410  0.00  0.00    +0.007 A 
ATOM     25  C11 T01     1      90.331 120.906 143.498  0.00  0.00    +0.008 A 
ATOM     26  C12 T01     1      89.497 119.802 143.737  0.00  0.00    +0.000 A 
ATOM     27  C13 T01     1      89.553 118.684 142.894  0.00  0.00    +0.001 A 
ATOM     28  C14 T01     1      90.443 118.672 141.810  0.00  0.00    +0.019 A 
ATOM     29  C15 T01     1      91.281 119.775 141.564  0.00  0.00    +0.058 A 
BRANCH  29  30
ATOM     30  C16 T01     1      92.178 119.717 140.442  0.00  0.00    +0.100 C 
ATOM     31  N4  T01     1      92.890 119.672 139.532  0.00  0.00    -0.191 NA
ENDBRANCH  29  30
ENDBRANCH  23  24
ENDBRANCH  22  23
ENDBRANCH   7  22
TORSDOF 5
ENDMDL
MODEL 9
REMARK VINA RESULT:    -7.948      3.564      6.766
REMARK INTER + INTRA:         -11.584
REMARK INTER:                 -10.264
REMARK INTRA:                  -1.320
REMARK UNBOUND:                -1.313
REMARK  Name = ligands_pdb/TRN_CHEMBL120838.pdb
REMARK  6 active torsions:
REMARK  status: ('A' for Active; 'I' for Inactive)
REMARK    1  A    between atoms: C1_1  and  C2_2
REMARK    2  A    between atoms: C3_5  and  C4_6
REMARK    3  A    between atoms: C8_12  and  O2_13
REMARK    4  A    between atoms: O2_13  and  C9_14
REMARK    5  A    between atoms: C9_14  and  C10_15
REMARK    6  A    between atoms: C15_20  and  C16_21
REMARK                            x       y       z     vdW  Elec       q    Type
REMARK                         _______ _______ _______ _____ _____    ______ ____
ROOT
ATOM      1  C4  T01     1      94.853 122.265 138.282  0.00  0.00    +0.243 A 
ATOM      2  N2  T01     1      94.136 123.375 138.157  0.00  0.00    -0.122 NA
ATOM      3  N3  T01     1      92.994 123.215 138.909  0.00  0.00    -0.127 NA
ATOM      4  C5  T01     1      93.101 122.014 139.439  0.00  0.00    +0.182 A 
ATOM      5  C6  T01     1      92.154 121.396 140.301  0.00  0.00    +0.010 A 
ATOM      6  C7  T01     1      92.496 120.132 140.722  0.00  0.00    +0.026 A 
ATOM      7  C8  T01     1      93.687 119.531 140.317  0.00  0.00    +0.237 A 
ATOM      8  N5  T01     1      94.605 120.085 139.503  0.00  0.00    -0.125 NA
ATOM      9  N6  T01     1      94.238 121.342 139.099  0.00  0.00    -0.185 N 
ATOM     10  C17 T01     1      91.452 119.521 141.640  0.00  0.00    +0.025 C 
ATOM     11  C18 T01     1      90.106 119.509 140.855  0.00  0.00    +0.009 C 
ATOM     12  C19 T01     1      89.746 120.949 140.358  0.00  0.00    +0.009 C 
ATOM     13  C20 T01     1      90.845 121.961 140.794  0.00  0.00    +0.023 C 
ATOM     14  C21 T01     1      90.919 121.930 142.348  0.00  0.00    +0.009 C 
ATOM     15  C22 T01     1      91.280 120.492 142.847  0.00  0.00    +0.009 C 
ENDROOT
BRANCH   1  20
ATOM     16  C1  T01     1      99.285 123.158 136.498  0.00  0.00    +0.091 C 
ATOM     17  C2  T01     1      97.988 122.482 136.846  0.00  0.00    +0.169 A 
ATOM     18  N1  T01     1      97.718 121.245 136.448  0.00  0.00    -0.061 NA
ATOM     19  O1  T01     1      96.436 120.975 136.959  0.00  0.00    -0.329 OA
ATOM     20  C3  T01     1      96.117 122.123 137.604  0.00  0.00    +0.298 A 
ATOM     21  N7  T01     1      97.037 123.018 137.538  0.00  0.00    -0.189 NA
ENDBRANCH   1  20
BRANCH   7  22
ATOM     22  O2  T01     1      93.958 118.267 140.783  0.00  0.00    -0.470 OA
BRANCH  22  23
ATOM     23  C9  T01     1      95.301 117.760 140.944  0.00  0.00    +0.267 C 
BRANCH  23  24
ATOM     24  C10 T01     1      95.922 118.199 142.275  0.00  0.00    +0.007 A 
ATOM     25  C11 T01     1      95.328 117.853 143.509  0.00  0.00    +0.008 A 
ATOM     26  C12 T01     1      95.904 118.260 144.722  0.00  0.00    +0.000 A 
ATOM     27  C13 T01     1      97.082 119.021 144.721  0.00  0.00    +0.001 A 
ATOM     28  C14 T01     1      97.682 119.373 143.504  0.00  0.00    +0.019 A 
ATOM     29  C15 T01     1      97.111 118.968 142.284  0.00  0.00    +0.058 A 
BRANCH  29  30
ATOM     30  C16 T01     1      97.762 119.352 141.061  0.00  0.00    +0.100 C 
ATOM     31  N4  T01     1      98.276 119.658 140.072  0.00  0.00    -0.191 NA
ENDBRANCH  29  30
ENDBRANCH  23  24
ENDBRANCH  22  23
ENDBRANCH   7  22
TORSDOF 5
ENDMDL
MODEL 10
REMARK VINA RESULT:    -7.935      4.759      9.064
REMARK INTER + INTRA:         -11.568
REMARK INTER:                  -9.789
REMARK INTRA:                  -1.779
REMARK UNBOUND:                -1.313
REMARK  Name = ligands_pdb/TRN_CHEMBL120838.pdb
REMARK  6 active torsions:
REMARK  status: ('A' for Active; 'I' for Inactive)
REMARK    1  A    between atoms: C1_1  and  C2_2
REMARK    2  A    between atoms: C3_5  and  C4_6
REMARK    3  A    between atoms: C8_12  and  O2_13
REMARK    4  A    between atoms: O2_13  and  C9_14
REMARK    5  A    between atoms: C9_14  and  C10_15
REMARK    6  A    between atoms: C15_20  and  C16_21
REMARK                            x       y       z     vdW  Elec       q    Type
REMARK                         _______ _______ _______ _____ _____    ______ ____
ROOT
ATOM      1  C4  T01     1      96.546 124.144 136.783  0.00  0.00    +0.243 A 
ATOM      2  N2  T01     1      97.826 124.392 137.035  0.00  0.00    -0.122 NA
ATOM      3  N3  T01     1      98.274 123.413 137.892  0.00  0.00    -0.127 NA
ATOM      4  C5  T01     1      97.229 122.638 138.100  0.00  0.00    +0.182 A 
ATOM      5  C6  T01     1      97.201 121.481 138.926  0.00  0.00    +0.010 A 
ATOM      6  C7  T01     1      95.985 120.841 138.980  0.00  0.00    +0.026 A 
ATOM      7  C8  T01     1      94.884 121.315 138.268  0.00  0.00    +0.237 A 
ATOM      8  N5  T01     1      94.875 122.404 137.477  0.00  0.00    -0.125 NA
ATOM      9  N6  T01     1      96.098 123.022 137.443  0.00  0.00    -0.185 N 
ATOM     10  C17 T01     1      96.012 119.614 139.874  0.00  0.00    +0.025 C 
ATOM     11  C18 T01     1      96.463 120.090 141.289  0.00  0.00    +0.009 C 
ATOM     12  C19 T01     1      97.832 120.841 141.205  0.00  0.00    +0.009 C 
ATOM     13  C20 T01     1      98.333 120.892 139.732  0.00  0.00    +0.023 C 
ATOM     14  C21 T01     1      98.493 119.424 139.242  0.00  0.00    +0.009 C 
ATOM     15  C22 T01     1      97.124 118.671 139.323  0.00  0.00    +0.009 C 
ENDROOT
BRANCH   1  20
ATOM     16  C1  T01     1      94.364 128.034 134.850  0.00  0.00    +0.091 C 
ATOM     17  C2  T01     1      94.862 126.634 135.079  0.00  0.00    +0.169 A 
ATOM     18  N1  T01     1      94.582 125.649 134.234  0.00  0.00    -0.061 NA
ATOM     19  O1  T01     1      95.210 124.516 134.784  0.00  0.00    -0.329 OA
ATOM     20  C3  T01     1      95.787 125.003 135.909  0.00  0.00    +0.298 A 
ATOM     21  N7  T01     1      95.582 126.259 136.086  0.00  0.00    -0.189 NA
ENDBRANCH   1  20
BRANCH   7  22
ATOM     22  O2  T01     1      93.705 120.617 138.373  0.00  0.00    -0.470 OA
BRANCH  22  23
ATOM     23  C9  T01     1      92.565 121.110 139.112  0.00  0.00    +0.267 C 
BRANCH  23  24
ATOM     24  C10 T01     1      92.709 120.858 140.618  0.00  0.00    +0.007 A 
ATOM     25  C11 T01     1      93.252 121.840 141.476  0.00  0.00    +0.008 A 
ATOM     26  C12 T01     1      93.379 121.600 142.853  0.00  0.00    +0.000 A 
ATOM     27  C13 T01     1      92.968 120.373 143.393  0.00  0.00    +0.001 A 
ATOM     28  C14 T01     1      92.428 119.388 142.554  0.00  0.00    +0.019 A 
ATOM     29  C15 T01     1      92.296 119.623 141.173  0.00  0.00    +0.058 A 
BRANCH  29  30
ATOM     30  C16 T01     1      91.738 118.584 140.351  0.00  0.00    +0.100 C 
ATOM     31  N4  T01     1      91.296 117.741 139.694  0.00  0.00    -0.191 NA
ENDBRANCH  29  30
ENDBRANCH  23  24
ENDBRANCH  22  23
ENDBRANCH   7  22
TORSDOF 5
ENDMDL
