MODEL 1
REMARK VINA RESULT:    -8.766      0.000      0.000
REMARK INTER + INTRA:         -11.596
REMARK INTER:                 -10.816
REMARK INTRA:                  -0.780
REMARK UNBOUND:                -0.780
REMARK  Name = ligands_pdb/TRN_CHEMBL334246.pdb
REMARK  5 active torsions:
REMARK  status: ('A' for Active; 'I' for Inactive)
REMARK    1  A    between atoms: C1_1  and  C2_2
REMARK    2  A    between atoms: C3_5  and  C4_6
REMARK    3  A    between atoms: C8_12  and  O2_13
REMARK    4  A    between atoms: O2_13  and  C9_14
REMARK    5  A    between atoms: C9_14  and  C10_15
REMARK                            x       y       z     vdW  Elec       q    Type
REMARK                         _______ _______ _______ _____ _____    ______ ____
ROOT
ATOM      1  C4  T14     1      94.295 118.376 145.009  0.00  0.00    +0.243 A 
ATOM      2  N2  T14     1      93.178 117.561 144.871  0.00  0.00    -0.122 NA
ATOM      3  N3  T14     1      92.636 117.783 143.692  0.00  0.00    -0.127 NA
ATOM      4  C5  T14     1      93.426 118.724 143.133  0.00  0.00    +0.182 A 
ATOM      5  C6  T14     1      93.267 119.303 141.863  0.00  0.00    +0.010 A 
ATOM      6  C7  T14     1      94.194 120.276 141.445  0.00  0.00    +0.026 A 
ATOM      7  C8  T14     1      95.258 120.649 142.299  0.00  0.00    +0.237 A 
ATOM      8  N6  T14     1      95.394 120.079 143.521  0.00  0.00    -0.125 NA
ATOM      9  N7  T14     1      94.479 119.146 143.886  0.00  0.00    -0.185 N 
ATOM     10  C13 T14     1      93.918 120.830 140.048  0.00  0.00    +0.025 C 
ATOM     11  C14 T14     1      92.477 121.420 140.072  0.00  0.00    +0.009 C 
ATOM     12  C15 T14     1      91.450 120.338 140.542  0.00  0.00    +0.009 C 
ATOM     13  C16 T14     1      92.173 118.994 140.846  0.00  0.00    +0.023 C 
ATOM     14  C17 T14     1      92.887 118.537 139.541  0.00  0.00    +0.009 C 
ATOM     15  C18 T14     1      93.915 119.618 139.072  0.00  0.00    +0.009 C 
ENDROOT
BRANCH   1  20
ATOM     16  C1  T14     1      97.152 117.109 148.694  0.00  0.00    +0.091 C 
ATOM     17  C2  T14     1      96.292 117.894 147.744  0.00  0.00    +0.169 A 
ATOM     18  N1  T14     1      96.045 119.235 147.941  0.00  0.00    -0.061 NA
ATOM     19  O1  T14     1      95.226 119.505 146.847  0.00  0.00    -0.329 OA
ATOM     20  C3  T14     1      95.069 118.364 146.141  0.00  0.00    +0.298 A 
ATOM     21  N8  T14     1      95.717 117.353 146.677  0.00  0.00    -0.189 NA
ENDBRANCH   1  20
BRANCH   7  22
ATOM     22  O2  T14     1      96.152 121.603 141.864  0.00  0.00    -0.467 OA
BRANCH  22  23
ATOM     23  C9  T14     1      97.562 121.322 141.734  0.00  0.00    +0.304 C 
BRANCH  23  24
ATOM     24  C10 T14     1      97.973 121.357 140.284  0.00  0.00    +0.145 A 
ATOM     25  N4  T14     1      97.258 121.932 139.335  0.00  0.00    -0.237 NA
ATOM     26  C11 T14     1      97.967 121.747 138.173  0.00  0.00    +0.130 A 
ATOM     27  C12 T14     1      99.125 121.053 138.417  0.00  0.00    +0.104 A 
ATOM     28  N5  T14     1      99.128 120.804 139.770  0.00  0.00    -0.346 N 
ATOM     29  H1  T14     1      99.834 120.311 140.298  0.00  0.00    +0.167 HD
ENDBRANCH  23  24
ENDBRANCH  22  23
ENDBRANCH   7  22
TORSDOF 4
ENDMDL
MODEL 2
REMARK VINA RESULT:    -8.181      2.320      4.470
REMARK INTER + INTRA:         -10.874
REMARK INTER:                 -10.043
REMARK INTRA:                  -0.832
REMARK UNBOUND:                -0.780
REMARK  Name = ligands_pdb/TRN_CHEMBL334246.pdb
REMARK  5 active torsions:
REMARK  status: ('A' for Active; 'I' for Inactive)
REMARK    1  A    between atoms: C1_1  and  C2_2
REMARK    2  A    between atoms: C3_5  and  C4_6
REMARK    3  A    between atoms: C8_12  and  O2_13
REMARK    4  A    between atoms: O2_13  and  C9_14
REMARK    5  A    between atoms: C9_14  and  C10_15
REMARK                            x       y       z     vdW  Elec       q    Type
REMARK                         _______ _______ _______ _____ _____    ______ ____
ROOT
ATOM      1  C4  T14     1      96.802 118.684 145.209  0.00  0.00    +0.243 A 
ATOM      2  N2  T14     1      98.052 119.029 144.710  0.00  0.00    -0.122 NA
ATOM      3  N3  T14     1      97.955 119.197 143.408  0.00  0.00    -0.127 NA
ATOM      4  C5  T14     1      96.655 118.953 143.135  0.00  0.00    +0.182 A 
ATOM      5  C6  T14     1      96.041 119.001 141.872  0.00  0.00    +0.010 A 
ATOM      6  C7  T14     1      94.667 118.714 141.779  0.00  0.00    +0.026 A 
ATOM      7  C8  T14     1      93.935 118.386 142.944  0.00  0.00    +0.237 A 
ATOM      8  N6  T14     1      94.546 118.343 144.153  0.00  0.00    -0.125 NA
ATOM      9  N7  T14     1      95.872 118.627 144.200  0.00  0.00    -0.185 N 
ATOM     10  C13 T14     1      94.115 118.800 140.358  0.00  0.00    +0.025 C 
ATOM     11  C14 T14     1      94.942 117.808 139.489  0.00  0.00    +0.009 C 
ATOM     12  C15 T14     1      96.470 118.126 139.599  0.00  0.00    +0.009 C 
ATOM     13  C16 T14     1      96.708 119.340 140.542  0.00  0.00    +0.023 C 
ATOM     14  C17 T14     1      95.939 120.556 139.950  0.00  0.00    +0.009 C 
ATOM     15  C18 T14     1      94.411 120.238 139.842  0.00  0.00    +0.009 C 
ENDROOT
BRANCH   1  20
ATOM     16  C1  T14     1      97.045 118.638 150.035  0.00  0.00    +0.091 C 
ATOM     17  C2  T14     1      96.636 118.379 148.612  0.00  0.00    +0.169 A 
ATOM     18  N1  T14     1      95.595 117.530 148.308  0.00  0.00    -0.061 NA
ATOM     19  O1  T14     1      95.602 117.607 146.917  0.00  0.00    -0.329 OA
ATOM     20  C3  T14     1      96.593 118.445 146.543  0.00  0.00    +0.298 A 
ATOM     21  N8  T14     1      97.248 118.934 147.573  0.00  0.00    -0.189 NA
ENDBRANCH   1  20
BRANCH   7  22
ATOM     22  O2  T14     1      92.591 118.110 142.825  0.00  0.00    -0.467 OA
BRANCH  22  23
ATOM     23  C9  T14     1      91.582 119.000 143.349  0.00  0.00    +0.304 C 
BRANCH  23  24
ATOM     24  C10 T14     1      91.459 120.226 142.480  0.00  0.00    +0.145 A 
ATOM     25  N4  T14     1      90.735 120.270 141.378  0.00  0.00    -0.237 NA
ATOM     26  C11 T14     1      90.884 121.544 140.887  0.00  0.00    +0.130 A 
ATOM     27  C12 T14     1      91.707 122.283 141.700  0.00  0.00    +0.104 A 
ATOM     28  N5  T14     1      92.073 121.436 142.720  0.00  0.00    -0.346 N 
ATOM     29  H1  T14     1      92.678 121.649 143.501  0.00  0.00    +0.167 HD
ENDBRANCH  23  24
ENDBRANCH  22  23
ENDBRANCH   7  22
TORSDOF 4
ENDMDL
MODEL 3
REMARK VINA RESULT:    -8.060      2.392      4.994
REMARK INTER + INTRA:         -10.725
REMARK INTER:                 -10.226
REMARK INTRA:                  -0.499
REMARK UNBOUND:                -0.780
REMARK  Name = ligands_pdb/TRN_CHEMBL334246.pdb
REMARK  5 active torsions:
REMARK  status: ('A' for Active; 'I' for Inactive)
REMARK    1  A    between atoms: C1_1  and  C2_2
REMARK    2  A    between atoms: C3_5  and  C4_6
REMARK    3  A    between atoms: C8_12  and  O2_13
REMARK    4  A    between atoms: O2_13  and  C9_14
REMARK    5  A    between atoms: C9_14  and  C10_15
REMARK                            x       y       z     vdW  Elec       q    Type
REMARK                         _______ _______ _______ _____ _____    ______ ____
ROOT
ATOM      1  C4  T14     1      96.768 118.635 145.311  0.00  0.00    +0.243 A 
ATOM      2  N2  T14     1      98.004 119.003 144.793  0.00  0.00    -0.122 NA
ATOM      3  N3  T14     1      97.881 119.180 143.494  0.00  0.00    -0.127 NA
ATOM      4  C5  T14     1      96.581 118.920 143.242  0.00  0.00    +0.182 A 
ATOM      5  C6  T14     1      95.945 118.971 141.991  0.00  0.00    +0.010 A 
ATOM      6  C7  T14     1      94.573 118.664 141.919  0.00  0.00    +0.026 A 
ATOM      7  C8  T14     1      93.867 118.315 143.092  0.00  0.00    +0.237 A 
ATOM      8  N6  T14     1      94.499 118.271 144.291  0.00  0.00    -0.125 NA
ATOM      9  N7  T14     1      95.821 118.574 144.317  0.00  0.00    -0.185 N 
ATOM     10  C13 T14     1      93.996 118.754 140.507  0.00  0.00    +0.025 C 
ATOM     11  C14 T14     1      94.822 117.782 139.616  0.00  0.00    +0.009 C 
ATOM     12  C15 T14     1      96.346 118.121 139.702  0.00  0.00    +0.009 C 
ATOM     13  C16 T14     1      96.583 119.330 140.652  0.00  0.00    +0.023 C 
ATOM     14  C17 T14     1      95.786 120.540 140.084  0.00  0.00    +0.009 C 
ATOM     15  C18 T14     1      94.262 120.201 140.000  0.00  0.00    +0.009 C 
ENDROOT
BRANCH   1  20
ATOM     16  C1  T14     1      97.087 118.561 150.132  0.00  0.00    +0.091 C 
ATOM     17  C2  T14     1      96.662 118.302 148.713  0.00  0.00    +0.169 A 
ATOM     18  N1  T14     1      95.637 117.430 148.419  0.00  0.00    -0.061 NA
ATOM     19  O1  T14     1      95.621 117.517 147.029  0.00  0.00    -0.329 OA
ATOM     20  C3  T14     1      96.585 118.382 146.646  0.00  0.00    +0.298 A 
ATOM     21  N8  T14     1      97.244 118.879 147.670  0.00  0.00    -0.189 NA
ENDBRANCH   1  20
BRANCH   7  22
ATOM     22  O2  T14     1      92.524 118.021 142.994  0.00  0.00    -0.467 OA
BRANCH  22  23
ATOM     23  C9  T14     1      91.518 119.055 142.975  0.00  0.00    +0.304 C 
BRANCH  23  24
ATOM     24  C10 T14     1      90.520 118.798 141.874  0.00  0.00    +0.145 A 
ATOM     25  N4  T14     1      89.625 119.684 141.478  0.00  0.00    -0.237 NA
ATOM     26  C11 T14     1      88.919 119.072 140.471  0.00  0.00    +0.130 A 
ATOM     27  C12 T14     1      89.389 117.801 140.253  0.00  0.00    +0.104 A 
ATOM     28  N5  T14     1      90.415 117.628 141.153  0.00  0.00    -0.346 N 
ATOM     29  H1  T14     1      90.988 116.805 141.273  0.00  0.00    +0.167 HD
ENDBRANCH  23  24
ENDBRANCH  22  23
ENDBRANCH   7  22
TORSDOF 4
ENDMDL
MODEL 4
REMARK VINA RESULT:    -7.951      2.909      7.197
REMARK INTER + INTRA:         -10.590
REMARK INTER:                  -9.948
REMARK INTRA:                  -0.642
REMARK UNBOUND:                -0.780
REMARK  Name = ligands_pdb/TRN_CHEMBL334246.pdb
REMARK  5 active torsions:
REMARK  status: ('A' for Active; 'I' for Inactive)
REMARK    1  A    between atoms: C1_1  and  C2_2
REMARK    2  A    between atoms: C3_5  and  C4_6
REMARK    3  A    between atoms: C8_12  and  O2_13
REMARK    4  A    between atoms: O2_13  and  C9_14
REMARK    5  A    between atoms: C9_14  and  C10_15
REMARK                            x       y       z     vdW  Elec       q    Type
REMARK                         _______ _______ _______ _____ _____    ______ ____
ROOT
ATOM      1  C4  T14     1      97.419 119.320 140.771  0.00  0.00    +0.243 A 
ATOM      2  N2  T14     1      98.425 119.326 141.729  0.00  0.00    -0.122 NA
ATOM      3  N3  T14     1      97.891 119.069 142.904  0.00  0.00    -0.127 NA
ATOM      4  C5  T14     1      96.575 118.911 142.646  0.00  0.00    +0.182 A 
ATOM      5  C6  T14     1      95.568 118.620 143.581  0.00  0.00    +0.010 A 
ATOM      6  C7  T14     1      94.243 118.492 143.126  0.00  0.00    +0.026 A 
ATOM      7  C8  T14     1      93.950 118.654 141.753  0.00  0.00    +0.237 A 
ATOM      8  N6  T14     1      94.936 118.936 140.866  0.00  0.00    -0.125 NA
ATOM      9  N7  T14     1      96.200 119.052 141.345  0.00  0.00    -0.185 N 
ATOM     10  C13 T14     1      93.240 118.174 144.234  0.00  0.00    +0.025 C 
ATOM     11  C14 T14     1      93.349 119.317 145.286  0.00  0.00    +0.009 C 
ATOM     12  C15 T14     1      94.824 119.461 145.786  0.00  0.00    +0.009 C 
ATOM     13  C16 T14     1      95.743 118.420 145.084  0.00  0.00    +0.023 C 
ATOM     14  C17 T14     1      95.191 117.004 145.416  0.00  0.00    +0.009 C 
ATOM     15  C18 T14     1      93.717 116.859 144.915  0.00  0.00    +0.009 C 
ENDROOT
BRANCH   1  20
ATOM     16  C1  T14     1      98.578 121.325 136.530  0.00  0.00    +0.091 C 
ATOM     17  C2  T14     1      98.162 120.348 137.595  0.00  0.00    +0.169 A 
ATOM     18  N1  T14     1      97.843 119.044 137.287  0.00  0.00    -0.061 NA
ATOM     19  O1  T14     1      97.526 118.556 138.553  0.00  0.00    -0.329 OA
ATOM     20  C3  T14     1      97.676 119.558 139.445  0.00  0.00    +0.298 A 
ATOM     21  N8  T14     1      98.066 120.678 138.877  0.00  0.00    -0.189 NA
ENDBRANCH   1  20
BRANCH   7  22
ATOM     22  O2  T14     1      92.644 118.522 141.334  0.00  0.00    -0.467 OA
BRANCH  22  23
ATOM     23  C9  T14     1      92.243 118.833 139.982  0.00  0.00    +0.304 C 
BRANCH  23  24
ATOM     24  C10 T14     1      90.925 118.175 139.660  0.00  0.00    +0.145 A 
ATOM     25  N4  T14     1      90.180 118.503 138.621  0.00  0.00    -0.237 NA
ATOM     26  C11 T14     1      89.080 117.684 138.682  0.00  0.00    +0.130 A 
ATOM     27  C12 T14     1      89.156 116.848 139.768  0.00  0.00    +0.104 A 
ATOM     28  N5  T14     1      90.340 117.165 140.393  0.00  0.00    -0.346 N 
ATOM     29  H1  T14     1      90.719 116.745 141.230  0.00  0.00    +0.167 HD
ENDBRANCH  23  24
ENDBRANCH  22  23
ENDBRANCH   7  22
TORSDOF 4
ENDMDL
MODEL 5
REMARK VINA RESULT:    -7.698      4.599      5.432
REMARK INTER + INTRA:         -10.278
REMARK INTER:                  -9.479
REMARK INTRA:                  -0.800
REMARK UNBOUND:                -0.780
REMARK  Name = ligands_pdb/TRN_CHEMBL334246.pdb
REMARK  5 active torsions:
REMARK  status: ('A' for Active; 'I' for Inactive)
REMARK    1  A    between atoms: C1_1  and  C2_2
REMARK    2  A    between atoms: C3_5  and  C4_6
REMARK    3  A    between atoms: C8_12  and  O2_13
REMARK    4  A    between atoms: O2_13  and  C9_14
REMARK    5  A    between atoms: C9_14  and  C10_15
REMARK                            x       y       z     vdW  Elec       q    Type
REMARK                         _______ _______ _______ _____ _____    ______ ____
ROOT
ATOM      1  C4  T14     1      96.578 118.685 139.397  0.00  0.00    +0.243 A 
ATOM      2  N2  T14     1      96.015 117.561 139.988  0.00  0.00    -0.122 NA
ATOM      3  N3  T14     1      94.727 117.774 140.157  0.00  0.00    -0.127 NA
ATOM      4  C5  T14     1      94.526 119.017 139.668  0.00  0.00    +0.182 A 
ATOM      5  C6  T14     1      93.305 119.709 139.619  0.00  0.00    +0.010 A 
ATOM      6  C7  T14     1      93.287 121.006 139.072  0.00  0.00    +0.026 A 
ATOM      7  C8  T14     1      94.483 121.582 138.586  0.00  0.00    +0.237 A 
ATOM      8  N6  T14     1      95.652 120.897 138.643  0.00  0.00    -0.125 NA
ATOM      9  N7  T14     1      95.626 119.651 139.177  0.00  0.00    -0.185 N 
ATOM     10  C13 T14     1      91.904 121.655 139.073  0.00  0.00    +0.025 C 
ATOM     11  C14 T14     1      91.415 121.677 140.551  0.00  0.00    +0.009 C 
ATOM     12  C15 T14     1      91.441 120.236 141.158  0.00  0.00    +0.009 C 
ATOM     13  C16 T14     1      91.948 119.209 140.105  0.00  0.00    +0.023 C 
ATOM     14  C17 T14     1      90.983 119.269 138.885  0.00  0.00    +0.009 C 
ATOM     15  C18 T14     1      90.958 120.710 138.277  0.00  0.00    +0.009 C 
ENDROOT
BRANCH   1  20
ATOM     16  C1  T14     1     101.390 119.083 139.599  0.00  0.00    +0.091 C 
ATOM     17  C2  T14     1      99.978 118.916 139.108  0.00  0.00    +0.169 A 
ATOM     18  N1  T14     1      99.699 118.756 137.769  0.00  0.00    -0.061 NA
ATOM     19  O1  T14     1      98.310 118.652 137.810  0.00  0.00    -0.329 OA
ATOM     20  C3  T14     1      97.914 118.756 139.097  0.00  0.00    +0.298 A 
ATOM     21  N8  T14     1      98.928 118.922 139.919  0.00  0.00    -0.189 NA
ENDBRANCH   1  20
BRANCH   7  22
ATOM     22  O2  T14     1      94.437 122.852 138.054  0.00  0.00    -0.467 OA
BRANCH  22  23
ATOM     23  C9  T14     1      95.118 123.188 136.827  0.00  0.00    +0.304 C 
BRANCH  23  24
ATOM     24  C10 T14     1      96.564 123.518 137.101  0.00  0.00    +0.145 A 
ATOM     25  N4  T14     1      96.961 124.634 137.683  0.00  0.00    -0.237 NA
ATOM     26  C11 T14     1      98.330 124.551 137.748  0.00  0.00    +0.130 A 
ATOM     27  C12 T14     1      98.771 123.372 137.200  0.00  0.00    +0.104 A 
ATOM     28  N5  T14     1      97.638 122.712 136.786  0.00  0.00    -0.346 N 
ATOM     29  H1  T14     1      97.588 121.809 136.336  0.00  0.00    +0.167 HD
ENDBRANCH  23  24
ENDBRANCH  22  23
ENDBRANCH   7  22
TORSDOF 4
ENDMDL
MODEL 6
REMARK VINA RESULT:    -7.658      3.657      8.715
REMARK INTER + INTRA:         -10.229
REMARK INTER:                  -9.229
REMARK INTRA:                  -1.000
REMARK UNBOUND:                -0.780
REMARK  Name = ligands_pdb/TRN_CHEMBL334246.pdb
REMARK  5 active torsions:
REMARK  status: ('A' for Active; 'I' for Inactive)
REMARK    1  A    between atoms: C1_1  and  C2_2
REMARK    2  A    between atoms: C3_5  and  C4_6
REMARK    3  A    between atoms: C8_12  and  O2_13
REMARK    4  A    between atoms: O2_13  and  C9_14
REMARK    5  A    between atoms: C9_14  and  C10_15
REMARK                            x       y       z     vdW  Elec       q    Type
REMARK                         _______ _______ _______ _____ _____    ______ ____
ROOT
ATOM      1  C4  T14     1      95.636 124.406 136.940  0.00  0.00    +0.243 A 
ATOM      2  N2  T14     1      96.934 124.875 136.782  0.00  0.00    -0.122 NA
ATOM      3  N3  T14     1      97.773 123.919 137.122  0.00  0.00    -0.127 NA
ATOM      4  C5  T14     1      96.978 122.888 137.479  0.00  0.00    +0.182 A 
ATOM      5  C6  T14     1      97.396 121.624 137.926  0.00  0.00    +0.010 A 
ATOM      6  C7  T14     1      96.418 120.668 138.257  0.00  0.00    +0.026 A 
ATOM      7  C8  T14     1      95.047 120.991 138.135  0.00  0.00    +0.237 A 
ATOM      8  N6  T14     1      94.663 122.217 137.704  0.00  0.00    -0.125 NA
ATOM      9  N7  T14     1      95.637 123.110 137.395  0.00  0.00    -0.185 N 
ATOM     10  C13 T14     1      96.996 119.334 138.727  0.00  0.00    +0.025 C 
ATOM     11  C14 T14     1      97.900 119.640 139.956  0.00  0.00    +0.009 C 
ATOM     12  C15 T14     1      98.983 120.707 139.587  0.00  0.00    +0.009 C 
ATOM     13  C16 T14     1      98.834 121.144 138.101  0.00  0.00    +0.023 C 
ATOM     14  C17 T14     1      98.996 119.874 137.217  0.00  0.00    +0.009 C 
ATOM     15  C18 T14     1      97.913 118.808 137.585  0.00  0.00    +0.009 C 
ENDROOT
BRANCH   1  20
ATOM     16  C1  T14     1      91.804 127.337 137.211  0.00  0.00    +0.091 C 
ATOM     17  C2  T14     1      92.894 126.437 136.700  0.00  0.00    +0.169 A 
ATOM     18  N1  T14     1      93.003 126.130 135.362  0.00  0.00    -0.061 NA
ATOM     19  O1  T14     1      94.117 125.294 135.384  0.00  0.00    -0.329 OA
ATOM     20  C3  T14     1      94.543 125.185 136.661  0.00  0.00    +0.298 A 
ATOM     21  N8  T14     1      93.802 125.882 137.494  0.00  0.00    -0.189 NA
ENDBRANCH   1  20
BRANCH   7  22
ATOM     22  O2  T14     1      94.110 120.036 138.465  0.00  0.00    -0.467 OA
BRANCH  22  23
ATOM     23  C9  T14     1      93.324 120.127 139.672  0.00  0.00    +0.304 C 
BRANCH  23  24
ATOM     24  C10 T14     1      94.101 119.591 140.848  0.00  0.00    +0.145 A 
ATOM     25  N4  T14     1      94.615 120.356 141.793  0.00  0.00    -0.237 NA
ATOM     26  C11 T14     1      95.236 119.497 142.667  0.00  0.00    +0.130 A 
ATOM     27  C12 T14     1      95.098 118.197 142.250  0.00  0.00    +0.104 A 
ATOM     28  N5  T14     1      94.370 118.260 141.084  0.00  0.00    -0.346 N 
ATOM     29  H1  T14     1      94.083 117.485 140.503  0.00  0.00    +0.167 HD
ENDBRANCH  23  24
ENDBRANCH  22  23
ENDBRANCH   7  22
TORSDOF 4
ENDMDL
MODEL 7
REMARK VINA RESULT:    -7.606      3.159      7.026
REMARK INTER + INTRA:         -10.164
REMARK INTER:                  -9.395
REMARK INTRA:                  -0.769
REMARK UNBOUND:                -0.780
REMARK  Name = ligands_pdb/TRN_CHEMBL334246.pdb
REMARK  5 active torsions:
REMARK  status: ('A' for Active; 'I' for Inactive)
REMARK    1  A    between atoms: C1_1  and  C2_2
REMARK    2  A    between atoms: C3_5  and  C4_6
REMARK    3  A    between atoms: C8_12  and  O2_13
REMARK    4  A    between atoms: O2_13  and  C9_14
REMARK    5  A    between atoms: C9_14  and  C10_15
REMARK                            x       y       z     vdW  Elec       q    Type
REMARK                         _______ _______ _______ _____ _____    ______ ____
ROOT
ATOM      1  C4  T14     1      96.984 120.503 140.324  0.00  0.00    +0.243 A 
ATOM      2  N2  T14     1      97.934 119.539 140.635  0.00  0.00    -0.122 NA
ATOM      3  N3  T14     1      97.567 118.926 141.741  0.00  0.00    -0.127 NA
ATOM      4  C5  T14     1      96.406 119.524 142.086  0.00  0.00    +0.182 A 
ATOM      5  C6  T14     1      95.611 119.225 143.204  0.00  0.00    +0.010 A 
ATOM      6  C7  T14     1      94.426 119.958 143.404  0.00  0.00    +0.026 A 
ATOM      7  C8  T14     1      94.060 120.969 142.486  0.00  0.00    +0.237 A 
ATOM      8  N6  T14     1      94.842 121.243 141.413  0.00  0.00    -0.125 NA
ATOM      9  N7  T14     1      95.975 120.514 141.257  0.00  0.00    -0.185 N 
ATOM     10  C13 T14     1      93.648 119.542 144.651  0.00  0.00    +0.025 C 
ATOM     11  C14 T14     1      94.609 119.714 145.863  0.00  0.00    +0.009 C 
ATOM     12  C15 T14     1      95.927 118.902 145.636  0.00  0.00    +0.009 C 
ATOM     13  C16 T14     1      95.885 118.165 144.267  0.00  0.00    +0.023 C 
ATOM     14  C17 T14     1      94.655 117.213 144.281  0.00  0.00    +0.009 C 
ATOM     15  C18 T14     1      93.337 118.024 144.506  0.00  0.00    +0.009 C 
ENDROOT
BRANCH   1  20
ATOM     16  C1  T14     1      98.020 124.073 137.236  0.00  0.00    +0.091 C 
ATOM     17  C2  T14     1      97.507 122.795 137.839  0.00  0.00    +0.169 A 
ATOM     18  N1  T14     1      96.789 121.886 137.092  0.00  0.00    -0.061 NA
ATOM     19  O1  T14     1      96.539 120.910 138.054  0.00  0.00    -0.329 OA
ATOM     20  C3  T14     1      97.098 121.306 139.218  0.00  0.00    +0.298 A 
ATOM     21  N8  T14     1      97.701 122.469 139.111  0.00  0.00    -0.189 NA
ENDBRANCH   1  20
BRANCH   7  22
ATOM     22  O2  T14     1      92.895 121.671 142.705  0.00  0.00    -0.467 OA
BRANCH  22  23
ATOM     23  C9  T14     1      92.421 122.669 141.775  0.00  0.00    +0.304 C 
BRANCH  23  24
ATOM     24  C10 T14     1      92.361 124.021 142.440  0.00  0.00    +0.145 A 
ATOM     25  N4  T14     1      93.425 124.672 142.869  0.00  0.00    -0.237 NA
ATOM     26  C11 T14     1      92.951 125.845 143.403  0.00  0.00    +0.130 A 
ATOM     27  C12 T14     1      91.584 125.908 143.298  0.00  0.00    +0.104 A 
ATOM     28  N5  T14     1      91.208 124.738 142.680  0.00  0.00    -0.346 N 
ATOM     29  H1  T14     1      90.270 124.448 142.443  0.00  0.00    +0.167 HD
ENDBRANCH  23  24
ENDBRANCH  22  23
ENDBRANCH   7  22
TORSDOF 4
ENDMDL
MODEL 8
REMARK VINA RESULT:    -7.596      4.581      6.480
REMARK INTER + INTRA:         -10.152
REMARK INTER:                  -9.548
REMARK INTRA:                  -0.604
REMARK UNBOUND:                -0.780
REMARK  Name = ligands_pdb/TRN_CHEMBL334246.pdb
REMARK  5 active torsions:
REMARK  status: ('A' for Active; 'I' for Inactive)
REMARK    1  A    between atoms: C1_1  and  C2_2
REMARK    2  A    between atoms: C3_5  and  C4_6
REMARK    3  A    between atoms: C8_12  and  O2_13
REMARK    4  A    between atoms: O2_13  and  C9_14
REMARK    5  A    between atoms: C9_14  and  C10_15
REMARK                            x       y       z     vdW  Elec       q    Type
REMARK                         _______ _______ _______ _____ _____    ______ ____
ROOT
ATOM      1  C4  T14     1      93.918 118.522 139.807  0.00  0.00    +0.243 A 
ATOM      2  N2  T14     1      94.742 117.536 140.334  0.00  0.00    -0.122 NA
ATOM      3  N3  T14     1      95.982 117.781 139.966  0.00  0.00    -0.127 NA
ATOM      4  C5  T14     1      95.895 118.906 139.224  0.00  0.00    +0.182 A 
ATOM      5  C6  T14     1      96.956 119.579 138.597  0.00  0.00    +0.010 A 
ATOM      6  C7  T14     1      96.674 120.744 137.860  0.00  0.00    +0.026 A 
ATOM      7  C8  T14     1      95.343 121.213 137.765  0.00  0.00    +0.237 A 
ATOM      8  N6  T14     1      94.332 120.548 138.377  0.00  0.00    -0.125 NA
ATOM      9  N7  T14     1      94.647 119.430 139.077  0.00  0.00    -0.185 N 
ATOM     10  C13 T14     1      97.907 121.386 137.227  0.00  0.00    +0.025 C 
ATOM     11  C14 T14     1      98.562 120.307 136.316  0.00  0.00    +0.009 C 
ATOM     12  C15 T14     1      98.870 119.011 137.136  0.00  0.00    +0.009 C 
ATOM     13  C16 T14     1      98.430 119.187 138.619  0.00  0.00    +0.023 C 
ATOM     14  C17 T14     1      99.211 120.400 139.202  0.00  0.00    +0.009 C 
ATOM     15  C18 T14     1      98.902 121.695 138.383  0.00  0.00    +0.009 C 
ENDROOT
BRANCH   1  20
ATOM     16  C1  T14     1      89.510 118.558 141.788  0.00  0.00    +0.091 C 
ATOM     17  C2  T14     1      90.646 118.548 140.803  0.00  0.00    +0.169 A 
ATOM     18  N1  T14     1      90.416 118.532 139.444  0.00  0.00    -0.061 NA
ATOM     19  O1  T14     1      91.724 118.522 138.967  0.00  0.00    -0.329 OA
ATOM     20  C3  T14     1      92.564 118.531 140.024  0.00  0.00    +0.298 A 
ATOM     21  N8  T14     1      91.920 118.545 141.171  0.00  0.00    -0.189 NA
ENDBRANCH   1  20
BRANCH   7  22
ATOM     22  O2  T14     1      95.094 122.356 137.038  0.00  0.00    -0.467 OA
BRANCH  22  23
ATOM     23  C9  T14     1      94.584 123.556 137.658  0.00  0.00    +0.304 C 
BRANCH  23  24
ATOM     24  C10 T14     1      94.972 124.770 136.852  0.00  0.00    +0.145 A 
ATOM     25  N4  T14     1      94.451 125.062 135.675  0.00  0.00    -0.237 NA
ATOM     26  C11 T14     1      95.060 126.228 135.280  0.00  0.00    +0.130 A 
ATOM     27  C12 T14     1      95.960 126.650 136.226  0.00  0.00    +0.104 A 
ATOM     28  N5  T14     1      95.902 125.714 137.233  0.00  0.00    -0.346 N 
ATOM     29  H1  T14     1      96.434 125.708 138.091  0.00  0.00    +0.167 HD
ENDBRANCH  23  24
ENDBRANCH  22  23
ENDBRANCH   7  22
TORSDOF 4
ENDMDL
MODEL 9
REMARK VINA RESULT:    -7.566      2.688      6.630
REMARK INTER + INTRA:         -10.116
REMARK INTER:                  -9.177
REMARK INTRA:                  -0.939
REMARK UNBOUND:                -0.780
REMARK  Name = ligands_pdb/TRN_CHEMBL334246.pdb
REMARK  5 active torsions:
REMARK  status: ('A' for Active; 'I' for Inactive)
REMARK    1  A    between atoms: C1_1  and  C2_2
REMARK    2  A    between atoms: C3_5  and  C4_6
REMARK    3  A    between atoms: C8_12  and  O2_13
REMARK    4  A    between atoms: O2_13  and  C9_14
REMARK    5  A    between atoms: C9_14  and  C10_15
REMARK                            x       y       z     vdW  Elec       q    Type
REMARK                         _______ _______ _______ _____ _____    ______ ____
ROOT
ATOM      1  C4  T14     1      93.079 119.925 138.913  0.00  0.00    +0.243 A 
ATOM      2  N2  T14     1      92.897 120.770 137.825  0.00  0.00    -0.122 NA
ATOM      3  N3  T14     1      94.069 121.246 137.459  0.00  0.00    -0.127 NA
ATOM      4  C5  T14     1      94.942 120.687 138.324  0.00  0.00    +0.182 A 
ATOM      5  C6  T14     1      96.333 120.881 138.353  0.00  0.00    +0.010 A 
ATOM      6  C7  T14     1      97.087 120.211 139.334  0.00  0.00    +0.026 A 
ATOM      7  C8  T14     1      96.441 119.364 140.263  0.00  0.00    +0.237 A 
ATOM      8  N6  T14     1      95.097 119.190 140.220  0.00  0.00    -0.125 NA
ATOM      9  N7  T14     1      94.407 119.853 139.259  0.00  0.00    -0.185 N 
ATOM     10  C13 T14     1      98.585 120.500 139.262  0.00  0.00    +0.025 C 
ATOM     11  C14 T14     1      98.756 122.042 139.397  0.00  0.00    +0.009 C 
ATOM     12  C15 T14     1      97.913 122.784 138.309  0.00  0.00    +0.009 C 
ATOM     13  C16 T14     1      97.154 121.760 137.415  0.00  0.00    +0.023 C 
ATOM     14  C17 T14     1      98.216 120.839 136.748  0.00  0.00    +0.009 C 
ATOM     15  C18 T14     1      99.058 120.096 137.835  0.00  0.00    +0.009 C 
ENDROOT
BRANCH   1  20
ATOM     16  C1  T14     1      88.995 118.835 141.254  0.00  0.00    +0.091 C 
ATOM     17  C2  T14     1      90.295 118.738 140.506  0.00  0.00    +0.169 A 
ATOM     18  N1  T14     1      90.855 117.517 140.197  0.00  0.00    -0.061 NA
ATOM     19  O1  T14     1      92.009 117.929 139.535  0.00  0.00    -0.329 OA
ATOM     20  C3  T14     1      92.030 119.279 139.514  0.00  0.00    +0.298 A 
ATOM     21  N8  T14     1      90.981 119.802 140.111  0.00  0.00    -0.189 NA
ENDBRANCH   1  20
BRANCH   7  22
ATOM     22  O2  T14     1      97.203 118.719 141.212  0.00  0.00    -0.467 OA
BRANCH  22  23
ATOM     23  C9  T14     1      97.473 119.311 142.502  0.00  0.00    +0.304 C 
BRANCH  23  24
ATOM     24  C10 T14     1      96.531 118.758 143.541  0.00  0.00    +0.145 A 
ATOM     25  N4  T14     1      96.737 118.860 144.841  0.00  0.00    -0.237 NA
ATOM     26  C11 T14     1      95.666 118.238 145.435  0.00  0.00    +0.130 A 
ATOM     27  C12 T14     1      94.799 117.754 144.487  0.00  0.00    +0.104 A 
ATOM     28  N5  T14     1      95.355 118.089 143.275  0.00  0.00    -0.346 N 
ATOM     29  H1  T14     1      94.984 117.887 142.357  0.00  0.00    +0.167 HD
ENDBRANCH  23  24
ENDBRANCH  22  23
ENDBRANCH   7  22
TORSDOF 4
ENDMDL
