MODEL 1
REMARK VINA RESULT:    -9.469      0.000      0.000
REMARK INTER + INTRA:         -12.504
REMARK INTER:                 -11.683
REMARK INTRA:                  -0.821
REMARK UNBOUND:                -0.821
REMARK  Name = ligands_pdb/TRN_CHEMBL360733.pdb
REMARK  5 active torsions:
REMARK  status: ('A' for Active; 'I' for Inactive)
REMARK    1  A    between atoms: C1_1  and  C2_2
REMARK    2  A    between atoms: C5_6  and  C6_7
REMARK    3  A    between atoms: C6_7  and  O1_8
REMARK    4  A    between atoms: O1_8  and  C7_9
REMARK    5  A    between atoms: C8_12  and  C9_13
REMARK                            x       y       z     vdW  Elec       q    Type
REMARK                         _______ _______ _______ _____ _____    ______ ____
ROOT
ATOM      1  C7  T15     1      96.228 118.975 142.616  0.00  0.00    +0.237 A 
ATOM      2  N2  T15     1      96.212 118.736 143.952  0.00  0.00    -0.125 NA
ATOM      3  N3  T15     1      95.021 118.811 144.598  0.00  0.00    -0.189 N 
ATOM      4  C8  T15     1      94.657 118.666 145.920  0.00  0.00    +0.185 A 
ATOM      5  N4  T15     1      93.347 118.926 146.011  0.00  0.00    -0.127 NA
ATOM      6  N5  T15     1      92.877 119.198 144.866  0.00  0.00    -0.127 NA
ATOM      7  C15 T15     1      93.845 119.141 144.005  0.00  0.00    +0.182 A 
ATOM      8  C16 T15     1      93.826 119.402 142.628  0.00  0.00    +0.010 A 
ATOM      9  C17 T15     1      95.039 119.308 141.925  0.00  0.00    +0.026 A 
ATOM     10  C18 T15     1      94.909 119.617 140.435  0.00  0.00    +0.025 C 
ATOM     11  C19 T15     1      94.318 121.052 140.320  0.00  0.00    +0.009 C 
ATOM     12  C20 T15     1      92.973 121.158 141.111  0.00  0.00    +0.009 C 
ATOM     13  C21 T15     1      92.624 119.796 141.777  0.00  0.00    +0.023 C 
ATOM     14  C22 T15     1      92.509 118.733 140.645  0.00  0.00    +0.009 C 
ATOM     15  C23 T15     1      93.856 118.627 139.856  0.00  0.00    +0.009 C 
ENDROOT
BRANCH   4  16
ATOM     16  C9  T15     1      95.523 118.318 147.054  0.00  0.00    +0.021 A 
ATOM     17  C10 T15     1      95.837 119.292 148.024  0.00  0.00    +0.011 A 
ATOM     18  C11 T15     1      96.658 118.974 149.118  0.00  0.00    +0.001 A 
ATOM     19  C12 T15     1      97.171 117.676 149.260  0.00  0.00    +0.000 A 
ATOM     20  C13 T15     1      96.857 116.695 148.306  0.00  0.00    +0.001 A 
ATOM     21  C14 T15     1      96.036 117.013 147.211  0.00  0.00    +0.011 A 
ENDBRANCH   4  16
BRANCH   1  22
ATOM     22  O1  T15     1      97.404 118.903 141.903  0.00  0.00    -0.469 OA
BRANCH  22  23
ATOM     23  C6  T15     1      98.132 120.084 141.511  0.00  0.00    +0.286 C 
BRANCH  23  29
ATOM     24  C1  T15     1      99.088 122.438 137.081  0.00  0.00    +0.044 C 
ATOM     25  C2  T15     1      98.854 121.182 137.903  0.00  0.00    -0.047 A 
ATOM     26  C3  T15     1      98.859 119.914 137.299  0.00  0.00    +0.023 A 
ATOM     27  C4  T15     1      98.633 118.780 138.096  0.00  0.00    +0.111 A 
ATOM     28  N1  T15     1      98.404 118.851 139.423  0.00  0.00    -0.256 NA
ATOM     29  C5  T15     1      98.389 120.067 140.011  0.00  0.00    +0.079 A 
ATOM     30  C24 T15     1      98.617 121.255 139.288  0.00  0.00    +0.030 A 
ENDBRANCH  23  29
ENDBRANCH  22  23
ENDBRANCH   1  22
TORSDOF 4
ENDMDL
MODEL 2
REMARK VINA RESULT:    -8.664      3.825      9.090
REMARK INTER + INTRA:         -11.511
REMARK INTER:                 -10.135
REMARK INTRA:                  -1.375
REMARK UNBOUND:                -0.821
REMARK  Name = ligands_pdb/TRN_CHEMBL360733.pdb
REMARK  5 active torsions:
REMARK  status: ('A' for Active; 'I' for Inactive)
REMARK    1  A    between atoms: C1_1  and  C2_2
REMARK    2  A    between atoms: C5_6  and  C6_7
REMARK    3  A    between atoms: C6_7  and  O1_8
REMARK    4  A    between atoms: O1_8  and  C7_9
REMARK    5  A    between atoms: C8_12  and  C9_13
REMARK                            x       y       z     vdW  Elec       q    Type
REMARK                         _______ _______ _______ _____ _____    ______ ____
ROOT
ATOM      1  C7  T15     1      95.578 121.560 138.060  0.00  0.00    +0.237 A 
ATOM      2  N2  T15     1      95.559 122.889 137.785  0.00  0.00    -0.125 NA
ATOM      3  N3  T15     1      96.749 123.523 137.623  0.00  0.00    -0.189 N 
ATOM      4  C8  T15     1      97.088 124.836 137.376  0.00  0.00    +0.185 A 
ATOM      5  N4  T15     1      98.425 124.918 137.391  0.00  0.00    -0.127 NA
ATOM      6  N5  T15     1      98.929 123.775 137.606  0.00  0.00    -0.127 NA
ATOM      7  C15 T15     1      97.961 122.925 137.751  0.00  0.00    +0.182 A 
ATOM      8  C16 T15     1      98.018 121.556 138.043  0.00  0.00    +0.010 A 
ATOM      9  C17 T15     1      96.803 120.864 138.191  0.00  0.00    +0.026 A 
ATOM     10  C18 T15     1      96.978 119.381 138.514  0.00  0.00    +0.025 C 
ATOM     11  C19 T15     1      97.819 119.298 139.820  0.00  0.00    +0.009 C 
ATOM     12  C20 T15     1      99.167 120.076 139.657  0.00  0.00    +0.009 C 
ATOM     13  C21 T15     1      99.266 120.701 138.236  0.00  0.00    +0.023 C 
ATOM     14  C22 T15     1      99.177 119.540 137.202  0.00  0.00    +0.009 C 
ATOM     15  C23 T15     1      97.829 118.764 137.366  0.00  0.00    +0.009 C 
ENDROOT
BRANCH   4  16
ATOM     16  C9  T15     1      96.181 125.970 137.159  0.00  0.00    +0.021 A 
ATOM     17  C10 T15     1      95.892 126.852 138.221  0.00  0.00    +0.011 A 
ATOM     18  C11 T15     1      95.032 127.946 138.029  0.00  0.00    +0.001 A 
ATOM     19  C12 T15     1      94.455 128.175 136.770  0.00  0.00    +0.000 A 
ATOM     20  C13 T15     1      94.744 127.310 135.704  0.00  0.00    +0.001 A 
ATOM     21  C14 T15     1      95.603 126.215 135.896  0.00  0.00    +0.011 A 
ENDBRANCH   4  16
BRANCH   1  22
ATOM     22  O1  T15     1      94.404 120.859 138.223  0.00  0.00    -0.469 OA
BRANCH  22  23
ATOM     23  C6  T15     1      93.387 121.281 139.154  0.00  0.00    +0.286 C 
BRANCH  23  29
ATOM     24  C1  T15     1      95.317 118.183 142.727  0.00  0.00    +0.044 C 
ATOM     25  C2  T15     1      94.758 119.524 142.281  0.00  0.00    -0.047 A 
ATOM     26  C3  T15     1      94.616 120.585 143.192  0.00  0.00    +0.023 A 
ATOM     27  C4  T15     1      94.089 121.806 142.738  0.00  0.00    +0.111 A 
ATOM     28  N1  T15     1      93.705 122.008 141.462  0.00  0.00    -0.256 NA
ATOM     29  C5  T15     1      93.831 120.991 140.582  0.00  0.00    +0.079 A 
ATOM     30  C24 T15     1      94.358 119.737 140.950  0.00  0.00    +0.030 A 
ENDBRANCH  23  29
ENDBRANCH  22  23
ENDBRANCH   1  22
TORSDOF 4
ENDMDL
MODEL 3
REMARK VINA RESULT:    -8.495      2.439      7.306
REMARK INTER + INTRA:         -11.302
REMARK INTER:                 -10.141
REMARK INTRA:                  -1.160
REMARK UNBOUND:                -0.821
REMARK  Name = ligands_pdb/TRN_CHEMBL360733.pdb
REMARK  5 active torsions:
REMARK  status: ('A' for Active; 'I' for Inactive)
REMARK    1  A    between atoms: C1_1  and  C2_2
REMARK    2  A    between atoms: C5_6  and  C6_7
REMARK    3  A    between atoms: C6_7  and  O1_8
REMARK    4  A    between atoms: O1_8  and  C7_9
REMARK    5  A    between atoms: C8_12  and  C9_13
REMARK                            x       y       z     vdW  Elec       q    Type
REMARK                         _______ _______ _______ _____ _____    ______ ____
ROOT
ATOM      1  C7  T15     1      94.047 118.698 141.788  0.00  0.00    +0.237 A 
ATOM      2  N2  T15     1      95.103 118.995 140.989  0.00  0.00    -0.125 NA
ATOM      3  N3  T15     1      96.335 119.044 141.555  0.00  0.00    -0.189 N 
ATOM      4  C8  T15     1      97.587 119.341 141.059  0.00  0.00    +0.185 A 
ATOM      5  N4  T15     1      98.447 119.315 142.085  0.00  0.00    -0.127 NA
ATOM      6  N5  T15     1      97.838 119.012 143.155  0.00  0.00    -0.127 NA
ATOM      7  C15 T15     1      96.583 118.847 142.876  0.00  0.00    +0.182 A 
ATOM      8  C16 T15     1      95.515 118.546 143.731  0.00  0.00    +0.010 A 
ATOM      9  C17 T15     1      94.228 118.463 143.172  0.00  0.00    +0.026 A 
ATOM     10  C18 T15     1      93.137 118.137 144.191  0.00  0.00    +0.025 C 
ATOM     11  C19 T15     1      93.190 119.245 145.281  0.00  0.00    +0.009 C 
ATOM     12  C20 T15     1      94.626 119.343 145.896  0.00  0.00    +0.009 C 
ATOM     13  C21 T15     1      95.573 118.302 145.236  0.00  0.00    +0.023 C 
ATOM     14  C22 T15     1      94.969 116.889 145.483  0.00  0.00    +0.009 C 
ATOM     15  C23 T15     1      93.535 116.792 144.866  0.00  0.00    +0.009 C 
ENDROOT
BRANCH   4  16
ATOM     16  C9  T15     1      97.947 119.660 139.672  0.00  0.00    +0.021 A 
ATOM     17  C10 T15     1      98.695 120.821 139.389  0.00  0.00    +0.011 A 
ATOM     18  C11 T15     1      99.054 121.138 138.068  0.00  0.00    +0.001 A 
ATOM     19  C12 T15     1      98.676 120.292 137.014  0.00  0.00    +0.000 A 
ATOM     20  C13 T15     1      97.940 119.128 137.285  0.00  0.00    +0.001 A 
ATOM     21  C14 T15     1      97.580 118.812 138.605  0.00  0.00    +0.011 A 
ENDBRANCH   4  16
BRANCH   1  22
ATOM     22  O1  T15     1      92.773 118.621 141.271  0.00  0.00    -0.469 OA
BRANCH  22  23
ATOM     23  C6  T15     1      92.245 119.636 140.392  0.00  0.00    +0.286 C 
BRANCH  23  29
ATOM     24  C1  T15     1      89.254 121.645 144.012  0.00  0.00    +0.044 C 
ATOM     25  C2  T15     1      90.316 121.773 142.932  0.00  0.00    -0.047 A 
ATOM     26  C3  T15     1      90.882 123.022 142.623  0.00  0.00    +0.023 A 
ATOM     27  C4  T15     1      91.856 123.095 141.614  0.00  0.00    +0.111 A 
ATOM     28  N1  T15     1      92.274 122.019 140.919  0.00  0.00    -0.256 NA
ATOM     29  C5  T15     1      91.729 120.816 141.205  0.00  0.00    +0.079 A 
ATOM     30  C24 T15     1      90.754 120.650 142.208  0.00  0.00    +0.030 A 
ENDBRANCH  23  29
ENDBRANCH  22  23
ENDBRANCH   1  22
TORSDOF 4
ENDMDL
MODEL 4
REMARK VINA RESULT:    -8.402      2.150      7.378
REMARK INTER + INTRA:         -11.188
REMARK INTER:                 -10.523
REMARK INTRA:                  -0.665
REMARK UNBOUND:                -0.821
REMARK  Name = ligands_pdb/TRN_CHEMBL360733.pdb
REMARK  5 active torsions:
REMARK  status: ('A' for Active; 'I' for Inactive)
REMARK    1  A    between atoms: C1_1  and  C2_2
REMARK    2  A    between atoms: C5_6  and  C6_7
REMARK    3  A    between atoms: C6_7  and  O1_8
REMARK    4  A    between atoms: O1_8  and  C7_9
REMARK    5  A    between atoms: C8_12  and  C9_13
REMARK                            x       y       z     vdW  Elec       q    Type
REMARK                         _______ _______ _______ _____ _____    ______ ____
ROOT
ATOM      1  C7  T15     1      94.191 118.860 142.881  0.00  0.00    +0.237 A 
ATOM      2  N2  T15     1      95.131 119.106 141.933  0.00  0.00    -0.125 NA
ATOM      3  N3  T15     1      94.721 119.644 140.756  0.00  0.00    -0.189 N 
ATOM      4  C8  T15     1      95.384 119.980 139.595  0.00  0.00    +0.185 A 
ATOM      5  N4  T15     1      94.469 120.403 138.713  0.00  0.00    -0.127 NA
ATOM      6  N5  T15     1      93.315 120.372 139.237  0.00  0.00    -0.127 NA
ATOM      7  C15 T15     1      93.429 119.924 140.447  0.00  0.00    +0.182 A 
ATOM      8  C16 T15     1      92.432 119.675 141.400  0.00  0.00    +0.010 A 
ATOM      9  C17 T15     1      92.826 119.142 142.639  0.00  0.00    +0.026 A 
ATOM     10  C18 T15     1      91.663 118.902 143.601  0.00  0.00    +0.025 C 
ATOM     11  C19 T15     1      90.671 117.944 142.882  0.00  0.00    +0.009 C 
ATOM     12  C20 T15     1      90.240 118.534 141.498  0.00  0.00    +0.009 C 
ATOM     13  C21 T15     1      90.932 119.906 141.253  0.00  0.00    +0.023 C 
ATOM     14  C22 T15     1      90.511 120.861 142.409  0.00  0.00    +0.009 C 
ATOM     15  C23 T15     1      90.943 120.270 143.791  0.00  0.00    +0.009 C 
ENDROOT
BRANCH   4  16
ATOM     16  C9  T15     1      96.824 119.882 139.325  0.00  0.00    +0.021 A 
ATOM     17  C10 T15     1      97.317 118.845 138.507  0.00  0.00    +0.011 A 
ATOM     18  C11 T15     1      98.690 118.739 138.233  0.00  0.00    +0.001 A 
ATOM     19  C12 T15     1      99.589 119.675 138.770  0.00  0.00    +0.000 A 
ATOM     20  C13 T15     1      99.108 120.717 139.577  0.00  0.00    +0.001 A 
ATOM     21  C14 T15     1      97.735 120.822 139.852  0.00  0.00    +0.011 A 
ENDBRANCH   4  16
BRANCH   1  22
ATOM     22  O1  T15     1      94.545 118.326 144.100  0.00  0.00    -0.469 OA
BRANCH  22  23
ATOM     23  C6  T15     1      94.903 119.158 145.223  0.00  0.00    +0.286 C 
BRANCH  23  29
ATOM     24  C1  T15     1      97.088 118.606 149.806  0.00  0.00    +0.044 C 
ATOM     25  C2  T15     1      96.453 118.032 148.550  0.00  0.00    -0.047 A 
ATOM     26  C3  T15     1      96.319 116.644 148.380  0.00  0.00    +0.023 A 
ATOM     27  C4  T15     1      95.732 116.156 147.201  0.00  0.00    +0.111 A 
ATOM     28  N1  T15     1      95.292 116.962 146.215  0.00  0.00    -0.256 NA
ATOM     29  C5  T15     1      95.424 118.298 146.366  0.00  0.00    +0.079 A 
ATOM     30  C24 T15     1      95.992 118.872 147.521  0.00  0.00    +0.030 A 
ENDBRANCH  23  29
ENDBRANCH  22  23
ENDBRANCH   1  22
TORSDOF 4
ENDMDL
MODEL 5
REMARK VINA RESULT:    -8.281      2.336      7.365
REMARK INTER + INTRA:         -11.038
REMARK INTER:                 -10.275
REMARK INTRA:                  -0.763
REMARK UNBOUND:                -0.821
REMARK  Name = ligands_pdb/TRN_CHEMBL360733.pdb
REMARK  5 active torsions:
REMARK  status: ('A' for Active; 'I' for Inactive)
REMARK    1  A    between atoms: C1_1  and  C2_2
REMARK    2  A    between atoms: C5_6  and  C6_7
REMARK    3  A    between atoms: C6_7  and  O1_8
REMARK    4  A    between atoms: O1_8  and  C7_9
REMARK    5  A    between atoms: C8_12  and  C9_13
REMARK                            x       y       z     vdW  Elec       q    Type
REMARK                         _______ _______ _______ _____ _____    ______ ____
ROOT
ATOM      1  C7  T15     1      96.277 119.326 140.417  0.00  0.00    +0.237 A 
ATOM      2  N2  T15     1      94.948 119.586 140.318  0.00  0.00    -0.125 NA
ATOM      3  N3  T15     1      94.502 120.198 139.192  0.00  0.00    -0.189 N 
ATOM      4  C8  T15     1      93.257 120.630 138.787  0.00  0.00    +0.185 A 
ATOM      5  N4  T15     1      93.405 121.246 137.607  0.00  0.00    -0.127 NA
ATOM      6  N5  T15     1      94.621 121.212 137.249  0.00  0.00    -0.127 NA
ATOM      7  C15 T15     1      95.299 120.600 138.169  0.00  0.00    +0.182 A 
ATOM      8  C16 T15     1      96.677 120.355 138.242  0.00  0.00    +0.010 A 
ATOM      9  C17 T15     1      97.168 119.699 139.384  0.00  0.00    +0.026 A 
ATOM     10  C18 T15     1      98.681 119.488 139.365  0.00  0.00    +0.025 C 
ATOM     11  C19 T15     1      99.333 120.893 139.217  0.00  0.00    +0.009 C 
ATOM     12  C20 T15     1      98.778 121.626 137.951  0.00  0.00    +0.009 C 
ATOM     13  C21 T15     1      97.740 120.731 137.215  0.00  0.00    +0.023 C 
ATOM     14  C22 T15     1      98.457 119.410 136.811  0.00  0.00    +0.009 C 
ATOM     15  C23 T15     1      99.010 118.677 138.078  0.00  0.00    +0.009 C 
ENDROOT
BRANCH   4  16
ATOM     16  C9  T15     1      91.983 120.485 139.502  0.00  0.00    +0.021 A 
ATOM     17  C10 T15     1      91.697 121.315 140.606  0.00  0.00    +0.011 A 
ATOM     18  C11 T15     1      90.481 121.194 141.297  0.00  0.00    +0.001 A 
ATOM     19  C12 T15     1      89.530 120.245 140.889  0.00  0.00    +0.000 A 
ATOM     20  C13 T15     1      89.799 119.421 139.785  0.00  0.00    +0.001 A 
ATOM     21  C14 T15     1      91.017 119.540 139.095  0.00  0.00    +0.011 A 
ENDBRANCH   4  16
BRANCH   1  22
ATOM     22  O1  T15     1      96.789 118.696 141.530  0.00  0.00    -0.469 OA
BRANCH  22  23
ATOM     23  C6  T15     1      97.339 119.436 142.640  0.00  0.00    +0.286 C 
BRANCH  23  29
ATOM     24  C1  T15     1      96.314 117.956 147.419  0.00  0.00    +0.044 C 
ATOM     25  C2  T15     1      95.926 118.643 146.121  0.00  0.00    -0.047 A 
ATOM     26  C3  T15     1      94.658 119.230 145.966  0.00  0.00    +0.023 A 
ATOM     27  C4  T15     1      94.339 119.849 144.747  0.00  0.00    +0.111 A 
ATOM     28  N1  T15     1      95.195 119.904 143.708  0.00  0.00    -0.256 NA
ATOM     29  C5  T15     1      96.413 119.336 143.844  0.00  0.00    +0.079 A 
ATOM     30  C24 T15     1      96.819 118.703 145.036  0.00  0.00    +0.030 A 
ENDBRANCH  23  29
ENDBRANCH  22  23
ENDBRANCH   1  22
TORSDOF 4
ENDMDL
MODEL 6
REMARK VINA RESULT:    -8.059      2.482      7.005
REMARK INTER + INTRA:         -10.764
REMARK INTER:                 -10.024
REMARK INTRA:                  -0.741
REMARK UNBOUND:                -0.821
REMARK  Name = ligands_pdb/TRN_CHEMBL360733.pdb
REMARK  5 active torsions:
REMARK  status: ('A' for Active; 'I' for Inactive)
REMARK    1  A    between atoms: C1_1  and  C2_2
REMARK    2  A    between atoms: C5_6  and  C6_7
REMARK    3  A    between atoms: C6_7  and  O1_8
REMARK    4  A    between atoms: O1_8  and  C7_9
REMARK    5  A    between atoms: C8_12  and  C9_13
REMARK                            x       y       z     vdW  Elec       q    Type
REMARK                         _______ _______ _______ _____ _____    ______ ____
ROOT
ATOM      1  C7  T15     1      93.467 118.975 140.918  0.00  0.00    +0.237 A 
ATOM      2  N2  T15     1      94.675 119.227 140.351  0.00  0.00    -0.125 NA
ATOM      3  N3  T15     1      94.704 119.985 139.226  0.00  0.00    -0.189 N 
ATOM      4  C8  T15     1      95.725 120.395 138.395  0.00  0.00    +0.185 A 
ATOM      5  N4  T15     1      95.174 121.067 137.376  0.00  0.00    -0.127 NA
ATOM      6  N5  T15     1      93.916 121.120 137.521  0.00  0.00    -0.127 NA
ATOM      7  C15 T15     1      93.604 120.485 138.607  0.00  0.00    +0.182 A 
ATOM      8  C16 T15     1      92.340 120.239 139.160  0.00  0.00    +0.010 A 
ATOM      9  C17 T15     1      92.277 119.477 140.340  0.00  0.00    +0.026 A 
ATOM     10  C18 T15     1      90.854 119.262 140.855  0.00  0.00    +0.025 C 
ATOM     11  C19 T15     1      90.059 118.569 139.711  0.00  0.00    +0.009 C 
ATOM     12  C20 T15     1      90.139 119.412 138.396  0.00  0.00    +0.009 C 
ATOM     13  C21 T15     1      90.988 120.696 138.623  0.00  0.00    +0.023 C 
ATOM     14  C22 T15     1      90.310 121.517 139.758  0.00  0.00    +0.009 C 
ATOM     15  C23 T15     1      90.233 120.673 141.073  0.00  0.00    +0.009 C 
ENDROOT
BRANCH   4  16
ATOM     16  C9  T15     1      97.162 120.138 138.548  0.00  0.00    +0.021 A 
ATOM     17  C10 T15     1      97.814 119.242 137.676  0.00  0.00    +0.011 A 
ATOM     18  C11 T15     1      99.190 118.989 137.804  0.00  0.00    +0.001 A 
ATOM     19  C12 T15     1      99.933 119.635 138.804  0.00  0.00    +0.000 A 
ATOM     20  C13 T15     1      99.298 120.537 139.671  0.00  0.00    +0.001 A 
ATOM     21  C14 T15     1      97.922 120.789 139.544  0.00  0.00    +0.011 A 
ENDBRANCH   4  16
BRANCH   1  22
ATOM     22  O1  T15     1      93.372 118.222 142.067  0.00  0.00    -0.469 OA
BRANCH  22  23
ATOM     23  C6  T15     1      93.145 118.825 143.357  0.00  0.00    +0.286 C 
BRANCH  23  29
ATOM     24  C1  T15     1      98.216 119.147 143.875  0.00  0.00    +0.044 C 
ATOM     25  C2  T15     1      96.826 118.924 144.447  0.00  0.00    -0.047 A 
ATOM     26  C3  T15     1      96.645 118.637 145.811  0.00  0.00    +0.023 A 
ATOM     27  C4  T15     1      95.342 118.432 146.296  0.00  0.00    +0.111 A 
ATOM     28  N1  T15     1      94.250 118.494 145.508  0.00  0.00    -0.256 NA
ATOM     29  C5  T15     1      94.416 118.762 144.195  0.00  0.00    +0.079 A 
ATOM     30  C24 T15     1      95.685 118.990 143.627  0.00  0.00    +0.030 A 
ENDBRANCH  23  29
ENDBRANCH  22  23
ENDBRANCH   1  22
TORSDOF 4
ENDMDL
MODEL 7
REMARK VINA RESULT:    -8.055      5.608      9.570
REMARK INTER + INTRA:         -10.759
REMARK INTER:                 -10.049
REMARK INTRA:                  -0.710
REMARK UNBOUND:                -0.821
REMARK  Name = ligands_pdb/TRN_CHEMBL360733.pdb
REMARK  5 active torsions:
REMARK  status: ('A' for Active; 'I' for Inactive)
REMARK    1  A    between atoms: C1_1  and  C2_2
REMARK    2  A    between atoms: C5_6  and  C6_7
REMARK    3  A    between atoms: C6_7  and  O1_8
REMARK    4  A    between atoms: O1_8  and  C7_9
REMARK    5  A    between atoms: C8_12  and  C9_13
REMARK                            x       y       z     vdW  Elec       q    Type
REMARK                         _______ _______ _______ _____ _____    ______ ____
ROOT
ATOM      1  C7  T15     1      95.326 121.818 137.782  0.00  0.00    +0.237 A 
ATOM      2  N2  T15     1      95.355 123.159 137.576  0.00  0.00    -0.125 NA
ATOM      3  N3  T15     1      96.566 123.770 137.526  0.00  0.00    -0.189 N 
ATOM      4  C8  T15     1      96.950 125.085 137.371  0.00  0.00    +0.185 A 
ATOM      5  N4  T15     1      98.285 125.133 137.478  0.00  0.00    -0.127 NA
ATOM      6  N5  T15     1      98.748 123.967 137.665  0.00  0.00    -0.127 NA
ATOM      7  C15 T15     1      97.754 123.136 137.701  0.00  0.00    +0.182 A 
ATOM      8  C16 T15     1      97.761 121.752 137.924  0.00  0.00    +0.010 A 
ATOM      9  C17 T15     1      96.524 121.086 137.955  0.00  0.00    +0.026 A 
ATOM     10  C18 T15     1      96.644 119.584 138.211  0.00  0.00    +0.025 C 
ATOM     11  C19 T15     1      97.394 119.413 139.563  0.00  0.00    +0.009 C 
ATOM     12  C20 T15     1      98.767 120.164 139.530  0.00  0.00    +0.009 C 
ATOM     13  C21 T15     1      98.974 120.857 138.153  0.00  0.00    +0.023 C 
ATOM     14  C22 T15     1      98.929 119.753 137.056  0.00  0.00    +0.009 C 
ATOM     15  C23 T15     1      97.556 119.005 137.090  0.00  0.00    +0.009 C 
ENDROOT
BRANCH   4  16
ATOM     16  C9  T15     1      96.085 126.251 137.156  0.00  0.00    +0.021 A 
ATOM     17  C10 T15     1      95.680 127.039 138.253  0.00  0.00    +0.011 A 
ATOM     18  C11 T15     1      94.858 128.161 138.064  0.00  0.00    +0.001 A 
ATOM     19  C12 T15     1      94.436 128.516 136.772  0.00  0.00    +0.000 A 
ATOM     20  C13 T15     1      94.842 127.746 135.672  0.00  0.00    +0.001 A 
ATOM     21  C14 T15     1      95.663 126.622 135.861  0.00  0.00    +0.011 A 
ENDBRANCH   4  16
BRANCH   1  22
ATOM     22  O1  T15     1      94.129 121.139 137.830  0.00  0.00    -0.469 OA
BRANCH  22  23
ATOM     23  C6  T15     1      93.305 121.131 139.014  0.00  0.00    +0.286 C 
BRANCH  23  29
ATOM     24  C1  T15     1      90.056 117.300 139.940  0.00  0.00    +0.044 C 
ATOM     25  C2  T15     1      90.459 118.559 139.190  0.00  0.00    -0.047 A 
ATOM     26  C3  T15     1      89.637 119.092 138.183  0.00  0.00    +0.023 A 
ATOM     27  C4  T15     1      90.051 120.254 137.511  0.00  0.00    +0.111 A 
ATOM     28  N1  T15     1      91.211 120.884 137.784  0.00  0.00    -0.256 NA
ATOM     29  C5  T15     1      92.012 120.373 138.745  0.00  0.00    +0.079 A 
ATOM     30  C24 T15     1      91.668 119.218 139.475  0.00  0.00    +0.030 A 
ENDBRANCH  23  29
ENDBRANCH  22  23
ENDBRANCH   1  22
TORSDOF 4
ENDMDL
MODEL 8
REMARK VINA RESULT:    -7.839      2.752      7.589
REMARK INTER + INTRA:         -10.493
REMARK INTER:                  -9.123
REMARK INTRA:                  -1.370
REMARK UNBOUND:                -0.821
REMARK  Name = ligands_pdb/TRN_CHEMBL360733.pdb
REMARK  5 active torsions:
REMARK  status: ('A' for Active; 'I' for Inactive)
REMARK    1  A    between atoms: C1_1  and  C2_2
REMARK    2  A    between atoms: C5_6  and  C6_7
REMARK    3  A    between atoms: C6_7  and  O1_8
REMARK    4  A    between atoms: O1_8  and  C7_9
REMARK    5  A    between atoms: C8_12  and  C9_13
REMARK                            x       y       z     vdW  Elec       q    Type
REMARK                         _______ _______ _______ _____ _____    ______ ____
ROOT
ATOM      1  C7  T15     1      94.540 121.134 141.733  0.00  0.00    +0.237 A 
ATOM      2  N2  T15     1      95.465 121.289 140.752  0.00  0.00    -0.125 NA
ATOM      3  N3  T15     1      96.548 120.471 140.765  0.00  0.00    -0.189 N 
ATOM      4  C8  T15     1      97.666 120.379 139.963  0.00  0.00    +0.185 A 
ATOM      5  N4  T15     1      98.462 119.435 140.484  0.00  0.00    -0.127 NA
ATOM      6  N5  T15     1      97.923 118.933 141.515  0.00  0.00    -0.127 NA
ATOM      7  C15 T15     1      96.788 119.527 141.712  0.00  0.00    +0.182 A 
ATOM      8  C16 T15     1      95.857 119.346 142.743  0.00  0.00    +0.010 A 
ATOM      9  C17 T15     1      94.711 120.160 142.745  0.00  0.00    +0.026 A 
ATOM     10  C18 T15     1      93.767 119.887 143.915  0.00  0.00    +0.025 C 
ATOM     11  C19 T15     1      94.589 120.094 145.219  0.00  0.00    +0.009 C 
ATOM     12  C20 T15     1      95.869 119.195 145.212  0.00  0.00    +0.009 C 
ATOM     13  C21 T15     1      95.939 118.358 143.902  0.00  0.00    +0.023 C 
ATOM     14  C22 T15     1      94.654 117.481 143.833  0.00  0.00    +0.009 C 
ATOM     15  C23 T15     1      93.376 118.382 143.839  0.00  0.00    +0.009 C 
ENDROOT
BRANCH   4  16
ATOM     16  C9  T15     1      97.978 121.170 138.767  0.00  0.00    +0.021 A 
ATOM     17  C10 T15     1      98.014 122.578 138.844  0.00  0.00    +0.011 A 
ATOM     18  C11 T15     1      98.316 123.350 137.711  0.00  0.00    +0.001 A 
ATOM     19  C12 T15     1      98.594 122.724 136.486  0.00  0.00    +0.000 A 
ATOM     20  C13 T15     1      98.572 121.323 136.400  0.00  0.00    +0.001 A 
ATOM     21  C14 T15     1      98.268 120.551 137.533  0.00  0.00    +0.011 A 
ENDBRANCH   4  16
BRANCH   1  22
ATOM     22  O1  T15     1      93.414 121.926 141.768  0.00  0.00    -0.469 OA
BRANCH  22  23
ATOM     23  C6  T15     1      92.420 121.885 140.724  0.00  0.00    +0.286 C 
BRANCH  23  29
ATOM     24  C1  T15     1      89.259 118.510 142.893  0.00  0.00    +0.044 C 
ATOM     25  C2  T15     1      90.184 118.943 141.768  0.00  0.00    -0.047 A 
ATOM     26  C3  T15     1      90.423 118.102 140.667  0.00  0.00    +0.023 A 
ATOM     27  C4  T15     1      91.290 118.540 139.652  0.00  0.00    +0.111 A 
ATOM     28  N1  T15     1      91.912 119.735 139.686  0.00  0.00    -0.256 NA
ATOM     29  C5  T15     1      91.694 120.546 140.744  0.00  0.00    +0.079 A 
ATOM     30  C24 T15     1      90.833 120.190 141.801  0.00  0.00    +0.030 A 
ENDBRANCH  23  29
ENDBRANCH  22  23
ENDBRANCH   1  22
TORSDOF 4
ENDMDL
MODEL 9
REMARK VINA RESULT:    -7.809      4.564      7.120
REMARK INTER + INTRA:         -10.456
REMARK INTER:                  -9.816
REMARK INTRA:                  -0.639
REMARK UNBOUND:                -0.821
REMARK  Name = ligands_pdb/TRN_CHEMBL360733.pdb
REMARK  5 active torsions:
REMARK  status: ('A' for Active; 'I' for Inactive)
REMARK    1  A    between atoms: C1_1  and  C2_2
REMARK    2  A    between atoms: C5_6  and  C6_7
REMARK    3  A    between atoms: C6_7  and  O1_8
REMARK    4  A    between atoms: O1_8  and  C7_9
REMARK    5  A    between atoms: C8_12  and  C9_13
REMARK                            x       y       z     vdW  Elec       q    Type
REMARK                         _______ _______ _______ _____ _____    ______ ____
ROOT
ATOM      1  C7  T15     1      95.712 121.483 138.461  0.00  0.00    +0.237 A 
ATOM      2  N2  T15     1      94.615 120.884 138.990  0.00  0.00    -0.125 NA
ATOM      3  N3  T15     1      94.733 119.600 139.414  0.00  0.00    -0.189 N 
ATOM      4  C8  T15     1      93.837 118.703 139.955  0.00  0.00    +0.185 A 
ATOM      5  N4  T15     1      94.478 117.537 140.115  0.00  0.00    -0.127 NA
ATOM      6  N5  T15     1      95.683 117.649 139.740  0.00  0.00    -0.127 NA
ATOM      7  C15 T15     1      95.867 118.859 139.315  0.00  0.00    +0.182 A 
ATOM      8  C16 T15     1      97.016 119.444 138.766  0.00  0.00    +0.010 A 
ATOM      9  C17 T15     1      96.935 120.781 138.341  0.00  0.00    +0.026 A 
ATOM     10  C18 T15     1      98.239 121.317 137.753  0.00  0.00    +0.025 C 
ATOM     11  C19 T15     1      98.617 120.386 136.566  0.00  0.00    +0.009 C 
ATOM     12  C20 T15     1      98.698 118.897 137.038  0.00  0.00    +0.009 C 
ATOM     13  C21 T15     1      98.378 118.790 138.557  0.00  0.00    +0.023 C 
ATOM     14  C22 T15     1      99.416 119.662 139.322  0.00  0.00    +0.009 C 
ATOM     15  C23 T15     1      99.332 121.151 138.849  0.00  0.00    +0.009 C 
ENDROOT
BRANCH   4  16
ATOM     16  C9  T15     1      92.425 118.935 140.283  0.00  0.00    +0.021 A 
ATOM     17  C10 T15     1      91.438 118.784 139.288  0.00  0.00    +0.011 A 
ATOM     18  C11 T15     1      90.082 118.995 139.587  0.00  0.00    +0.001 A 
ATOM     19  C12 T15     1      89.695 119.354 140.887  0.00  0.00    +0.000 A 
ATOM     20  C13 T15     1      90.668 119.497 141.888  0.00  0.00    +0.001 A 
ATOM     21  C14 T15     1      92.024 119.287 141.590  0.00  0.00    +0.011 A 
ENDBRANCH   4  16
BRANCH   1  22
ATOM     22  O1  T15     1      95.660 122.788 138.024  0.00  0.00    -0.469 OA
BRANCH  22  23
ATOM     23  C6  T15     1      95.457 123.119 136.635  0.00  0.00    +0.286 C 
BRANCH  23  29
ATOM     24  C1  T15     1      95.525 127.889 138.460  0.00  0.00    +0.044 C 
ATOM     25  C2  T15     1      95.278 126.889 137.342  0.00  0.00    -0.047 A 
ATOM     26  C3  T15     1      94.819 127.313 136.084  0.00  0.00    +0.023 A 
ATOM     27  C4  T15     1      94.599 126.354 135.081  0.00  0.00    +0.111 A 
ATOM     28  N1  T15     1      94.804 125.036 135.272  0.00  0.00    -0.256 NA
ATOM     29  C5  T15     1      95.238 124.618 136.481  0.00  0.00    +0.079 A 
ATOM     30  C24 T15     1      95.493 125.513 137.539  0.00  0.00    +0.030 A 
ENDBRANCH  23  29
ENDBRANCH  22  23
ENDBRANCH   1  22
TORSDOF 4
ENDMDL
MODEL 10
REMARK VINA RESULT:    -7.693      2.651      6.088
REMARK INTER + INTRA:         -10.312
REMARK INTER:                  -9.411
REMARK INTRA:                  -0.902
REMARK UNBOUND:                -0.821
REMARK  Name = ligands_pdb/TRN_CHEMBL360733.pdb
REMARK  5 active torsions:
REMARK  status: ('A' for Active; 'I' for Inactive)
REMARK    1  A    between atoms: C1_1  and  C2_2
REMARK    2  A    between atoms: C5_6  and  C6_7
REMARK    3  A    between atoms: C6_7  and  O1_8
REMARK    4  A    between atoms: O1_8  and  C7_9
REMARK    5  A    between atoms: C8_12  and  C9_13
REMARK                            x       y       z     vdW  Elec       q    Type
REMARK                         _______ _______ _______ _____ _____    ______ ____
ROOT
ATOM      1  C7  T15     1      95.478 120.356 139.124  0.00  0.00    +0.237 A 
ATOM      2  N2  T15     1      95.194 120.028 140.410  0.00  0.00    -0.125 NA
ATOM      3  N3  T15     1      96.221 119.645 141.210  0.00  0.00    -0.189 N 
ATOM      4  C8  T15     1      96.285 119.223 142.522  0.00  0.00    +0.185 A 
ATOM      5  N4  T15     1      97.557 118.893 142.780  0.00  0.00    -0.127 NA
ATOM      6  N5  T15     1      98.274 119.092 141.754  0.00  0.00    -0.127 NA
ATOM      7  C15 T15     1      97.513 119.536 140.805  0.00  0.00    +0.182 A 
ATOM      8  C16 T15     1      97.840 119.859 139.481  0.00  0.00    +0.010 A 
ATOM      9  C17 T15     1      96.803 120.283 138.632  0.00  0.00    +0.026 A 
ATOM     10  C18 T15     1      97.265 120.604 137.212  0.00  0.00    +0.025 C 
ATOM     11  C19 T15     1      97.938 119.317 136.654  0.00  0.00    +0.009 C 
ATOM     12  C20 T15     1      99.086 118.839 137.604  0.00  0.00    +0.009 C 
ATOM     13  C21 T15     1      99.215 119.796 138.825  0.00  0.00    +0.023 C 
ATOM     14  C22 T15     1      99.516 121.222 138.278  0.00  0.00    +0.009 C 
ATOM     15  C23 T15     1      98.367 121.698 137.329  0.00  0.00    +0.009 C 
ENDROOT
BRANCH   4  16
ATOM     16  C9  T15     1      95.180 119.115 143.482  0.00  0.00    +0.021 A 
ATOM     17  C10 T15     1      93.902 118.714 143.041  0.00  0.00    +0.011 A 
ATOM     18  C11 T15     1      92.835 118.599 143.947  0.00  0.00    +0.001 A 
ATOM     19  C12 T15     1      93.034 118.878 145.308  0.00  0.00    +0.000 A 
ATOM     20  C13 T15     1      94.305 119.267 145.760  0.00  0.00    +0.001 A 
ATOM     21  C14 T15     1      95.371 119.384 144.854  0.00  0.00    +0.011 A 
ENDBRANCH   4  16
BRANCH   1  22
ATOM     22  O1  T15     1      94.481 120.763 138.266  0.00  0.00    -0.469 OA
BRANCH  22  23
ATOM     23  C6  T15     1      93.096 120.429 138.492  0.00  0.00    +0.286 C 
BRANCH  23  29
ATOM     24  C1  T15     1      90.764 121.619 142.878  0.00  0.00    +0.044 C 
ATOM     25  C2  T15     1      91.366 122.004 141.537  0.00  0.00    -0.047 A 
ATOM     26  C3  T15     1      91.363 123.341 141.104  0.00  0.00    +0.023 A 
ATOM     27  C4  T15     1      91.925 123.652 139.854  0.00  0.00    +0.111 A 
ATOM     28  N1  T15     1      92.466 122.722 139.043  0.00  0.00    -0.256 NA
ATOM     29  C5  T15     1      92.466 121.433 139.448  0.00  0.00    +0.079 A 
ATOM     30  C24 T15     1      91.932 121.035 140.690  0.00  0.00    +0.030 A 
ENDBRANCH  23  29
ENDBRANCH  22  23
ENDBRANCH   1  22
TORSDOF 4
ENDMDL
