MODEL 1
REMARK VINA RESULT:   -10.731      0.000      0.000
REMARK INTER + INTRA:         -12.721
REMARK INTER:                 -13.241
REMARK INTRA:                   0.520
REMARK UNBOUND:                 0.520
REMARK  Name = ligands_pdb/TRN_CHEMBL52672.pdb
REMARK  4 active torsions:
REMARK  status: ('A' for Active; 'I' for Inactive)
REMARK    1  A    between atoms: C4_4  and  C5_5
REMARK    2  A    between atoms: C13_15  and  O1_16
REMARK    3  A    between atoms: O1_16  and  C14_17
REMARK    4  A    between atoms: C14_17  and  C15_18
REMARK                            x       y       z     vdW  Elec       q    Type
REMARK                         _______ _______ _______ _____ _____    ______ ____
ROOT
ATOM      1  C5  T22     1      96.747 115.222 149.047  0.00  0.00    +0.185 A 
ATOM      2  N1  T22     1      97.676 114.498 149.778  0.00  0.00    -0.127 NA
ATOM      3  N2  T22     1      97.470 113.217 149.557  0.00  0.00    -0.127 NA
ATOM      4  C6  T22     1      96.430 113.179 148.694  0.00  0.00    +0.186 A 
ATOM      5  C7  T22     1      95.845 112.023 148.139  0.00  0.00    +0.033 A 
ATOM      6  C8  T22     1      96.298 110.729 148.467  0.00  0.00    +0.012 A 
ATOM      7  C9  T22     1      95.688 109.604 147.890  0.00  0.00    +0.001 A 
ATOM      8  C10 T22     1      94.626 109.765 146.986  0.00  0.00    +0.001 A 
ATOM      9  C11 T22     1      94.171 111.052 146.652  0.00  0.00    +0.014 A 
ATOM     10  C12 T22     1      94.775 112.191 147.224  0.00  0.00    +0.049 A 
ATOM     11  C13 T22     1      94.342 113.503 146.899  0.00  0.00    +0.241 A 
ATOM     12  N4  T22     1      94.922 114.595 147.449  0.00  0.00    -0.125 NA
ATOM     13  N5  T22     1      95.926 114.389 148.331  0.00  0.00    -0.189 N 
ENDROOT
BRANCH   1  17
ATOM     14  C1  T22     1      96.649 119.516 149.141  0.00  0.00    +0.000 A 
ATOM     15  C2  T22     1      97.257 118.799 150.183  0.00  0.00    +0.001 A 
ATOM     16  C3  T22     1      97.285 117.395 150.148  0.00  0.00    +0.011 A 
ATOM     17  C4  T22     1      96.712 116.690 149.069  0.00  0.00    +0.021 A 
ATOM     18  C20 T22     1      96.098 117.422 148.031  0.00  0.00    +0.011 A 
ATOM     19  C21 T22     1      96.068 118.826 148.067  0.00  0.00    +0.001 A 
ENDBRANCH   1  17
BRANCH  11  20
ATOM     20  O1  T22     1      93.306 113.660 146.000  0.00  0.00    -0.470 OA
BRANCH  20  21
ATOM     21  C14 T22     1      92.160 112.789 145.989  0.00  0.00    +0.266 C 
BRANCH  21  22
ATOM     22  C15 T22     1      91.105 113.388 145.075  0.00  0.00    -0.007 A 
ATOM     23  C16 T22     1      90.130 112.577 144.469  0.00  0.00    +0.026 A 
ATOM     24  C17 T22     1      89.175 113.175 143.628  0.00  0.00    +0.111 A 
ATOM     25  N3  T22     1      89.151 114.499 143.373  0.00  0.00    -0.263 NA
ATOM     26  C18 T22     1      90.088 115.276 143.949  0.00  0.00    +0.111 A 
ATOM     27  C19 T22     1      91.081 114.767 144.804  0.00  0.00    +0.026 A 
ENDBRANCH  21  22
ENDBRANCH  20  21
ENDBRANCH  11  20
TORSDOF 4
ENDMDL
MODEL 2
REMARK VINA RESULT:   -10.549      2.607      4.021
REMARK INTER + INTRA:         -12.495
REMARK INTER:                 -12.141
REMARK INTRA:                  -0.354
REMARK UNBOUND:                 0.520
REMARK  Name = ligands_pdb/TRN_CHEMBL52672.pdb
REMARK  4 active torsions:
REMARK  status: ('A' for Active; 'I' for Inactive)
REMARK    1  A    between atoms: C4_4  and  C5_5
REMARK    2  A    between atoms: C13_15  and  O1_16
REMARK    3  A    between atoms: O1_16  and  C14_17
REMARK    4  A    between atoms: C14_17  and  C15_18
REMARK                            x       y       z     vdW  Elec       q    Type
REMARK                         _______ _______ _______ _____ _____    ______ ____
ROOT
ATOM      1  C5  T22     1      95.828 118.217 146.592  0.00  0.00    +0.185 A 
ATOM      2  N1  T22     1      96.536 118.938 147.542  0.00  0.00    -0.127 NA
ATOM      3  N2  T22     1      96.898 118.115 148.502  0.00  0.00    -0.127 NA
ATOM      4  C6  T22     1      96.417 116.909 148.123  0.00  0.00    +0.186 A 
ATOM      5  C7  T22     1      96.566 115.693 148.819  0.00  0.00    +0.033 A 
ATOM      6  C8  T22     1      97.246 115.618 150.051  0.00  0.00    +0.012 A 
ATOM      7  C9  T22     1      97.371 114.385 150.710  0.00  0.00    +0.001 A 
ATOM      8  C10 T22     1      96.821 113.225 150.143  0.00  0.00    +0.001 A 
ATOM      9  C11 T22     1      96.144 113.291 148.913  0.00  0.00    +0.014 A 
ATOM     10  C12 T22     1      96.011 114.523 148.240  0.00  0.00    +0.049 A 
ATOM     11  C13 T22     1      95.340 114.618 146.993  0.00  0.00    +0.241 A 
ATOM     12  N4  T22     1      95.212 115.801 146.349  0.00  0.00    -0.125 NA
ATOM     13  N5  T22     1      95.738 116.895 146.944  0.00  0.00    -0.189 N 
ENDROOT
BRANCH   1  17
ATOM     14  C1  T22     1      94.270 120.065 143.041  0.00  0.00    +0.000 A 
ATOM     15  C2  T22     1      95.584 119.575 143.065  0.00  0.00    +0.001 A 
ATOM     16  C3  T22     1      96.090 118.973 144.228  0.00  0.00    +0.011 A 
ATOM     17  C4  T22     1      95.286 118.847 145.381  0.00  0.00    +0.021 A 
ATOM     18  C20 T22     1      93.968 119.350 145.347  0.00  0.00    +0.011 A 
ATOM     19  C21 T22     1      93.463 119.954 144.184  0.00  0.00    +0.001 A 
ENDBRANCH   1  17
BRANCH  11  20
ATOM     20  O1  T22     1      94.810 113.474 146.431  0.00  0.00    -0.470 OA
BRANCH  20  21
ATOM     21  C14 T22     1      93.631 112.835 146.955  0.00  0.00    +0.266 C 
BRANCH  21  22
ATOM     22  C15 T22     1      92.463 113.143 146.034  0.00  0.00    -0.007 A 
ATOM     23  C16 T22     1      91.578 112.130 145.627  0.00  0.00    +0.026 A 
ATOM     24  C17 T22     1      90.513 112.461 144.771  0.00  0.00    +0.111 A 
ATOM     25  N3  T22     1      90.300 113.714 144.318  0.00  0.00    -0.263 NA
ATOM     26  C18 T22     1      91.152 114.684 144.703  0.00  0.00    +0.111 A 
ATOM     27  C19 T22     1      92.243 114.447 145.557  0.00  0.00    +0.026 A 
ENDBRANCH  21  22
ENDBRANCH  20  21
ENDBRANCH  11  20
TORSDOF 4
ENDMDL
MODEL 3
REMARK VINA RESULT:    -9.959      3.086      6.373
REMARK INTER + INTRA:         -11.768
REMARK INTER:                 -10.940
REMARK INTRA:                  -0.828
REMARK UNBOUND:                 0.520
REMARK  Name = ligands_pdb/TRN_CHEMBL52672.pdb
REMARK  4 active torsions:
REMARK  status: ('A' for Active; 'I' for Inactive)
REMARK    1  A    between atoms: C4_4  and  C5_5
REMARK    2  A    between atoms: C13_15  and  O1_16
REMARK    3  A    between atoms: O1_16  and  C14_17
REMARK    4  A    between atoms: C14_17  and  C15_18
REMARK                            x       y       z     vdW  Elec       q    Type
REMARK                         _______ _______ _______ _____ _____    ______ ____
ROOT
ATOM      1  C5  T22     1      94.683 118.840 145.617  0.00  0.00    +0.185 A 
ATOM      2  N1  T22     1      95.049 119.996 146.289  0.00  0.00    -0.127 NA
ATOM      3  N2  T22     1      95.688 119.653 147.387  0.00  0.00    -0.127 NA
ATOM      4  C6  T22     1      95.710 118.301 147.365  0.00  0.00    +0.186 A 
ATOM      5  C7  T22     1      96.305 117.458 148.325  0.00  0.00    +0.033 A 
ATOM      6  C8  T22     1      96.947 117.971 149.470  0.00  0.00    +0.012 A 
ATOM      7  C9  T22     1      97.528 117.095 150.401  0.00  0.00    +0.001 A 
ATOM      8  C10 T22     1      97.472 115.708 150.193  0.00  0.00    +0.001 A 
ATOM      9  C11 T22     1      96.836 115.190 149.052  0.00  0.00    +0.014 A 
ATOM     10  C12 T22     1      96.248 116.058 148.109  0.00  0.00    +0.049 A 
ATOM     11  C13 T22     1      95.607 115.563 146.943  0.00  0.00    +0.241 A 
ATOM     12  N4  T22     1      95.043 116.397 146.039  0.00  0.00    -0.125 NA
ATOM     13  N5  T22     1      95.103 117.723 146.293  0.00  0.00    -0.189 N 
ENDROOT
BRANCH   1  17
ATOM     14  C1  T22     1      92.531 118.945 141.901  0.00  0.00    +0.000 A 
ATOM     15  C2  T22     1      91.849 119.096 143.118  0.00  0.00    +0.001 A 
ATOM     16  C3  T22     1      92.557 119.060 144.330  0.00  0.00    +0.011 A 
ATOM     17  C4  T22     1      93.956 118.878 144.341  0.00  0.00    +0.021 A 
ATOM     18  C20 T22     1      94.629 118.721 143.111  0.00  0.00    +0.011 A 
ATOM     19  C21 T22     1      93.920 118.755 141.899  0.00  0.00    +0.001 A 
ENDBRANCH   1  17
BRANCH  11  20
ATOM     20  O1  T22     1      95.564 114.199 146.733  0.00  0.00    -0.470 OA
BRANCH  20  21
ATOM     21  C14 T22     1      94.371 113.425 146.959  0.00  0.00    +0.266 C 
BRANCH  21  22
ATOM     22  C15 T22     1      94.772 112.065 147.505  0.00  0.00    -0.007 A 
ATOM     23  C16 T22     1      95.255 111.927 148.817  0.00  0.00    +0.026 A 
ATOM     24  C17 T22     1      95.618 110.649 149.278  0.00  0.00    +0.111 A 
ATOM     25  N3  T22     1      95.523 109.542 148.514  0.00  0.00    -0.263 NA
ATOM     26  C18 T22     1      95.064 109.674 147.254  0.00  0.00    +0.111 A 
ATOM     27  C19 T22     1      94.678 110.911 146.708  0.00  0.00    +0.026 A 
ENDBRANCH  21  22
ENDBRANCH  20  21
ENDBRANCH  11  20
TORSDOF 4
ENDMDL
MODEL 4
REMARK VINA RESULT:    -9.648      6.229      8.629
REMARK INTER + INTRA:         -11.384
REMARK INTER:                 -10.522
REMARK INTRA:                  -0.862
REMARK UNBOUND:                 0.520
REMARK  Name = ligands_pdb/TRN_CHEMBL52672.pdb
REMARK  4 active torsions:
REMARK  status: ('A' for Active; 'I' for Inactive)
REMARK    1  A    between atoms: C4_4  and  C5_5
REMARK    2  A    between atoms: C13_15  and  O1_16
REMARK    3  A    between atoms: O1_16  and  C14_17
REMARK    4  A    between atoms: C14_17  and  C15_18
REMARK                            x       y       z     vdW  Elec       q    Type
REMARK                         _______ _______ _______ _____ _____    ______ ____
ROOT
ATOM      1  C5  T22     1      94.726 118.715 146.233  0.00  0.00    +0.185 A 
ATOM      2  N1  T22     1      93.362 118.885 146.415  0.00  0.00    -0.127 NA
ATOM      3  N2  T22     1      92.807 119.083 145.239  0.00  0.00    -0.127 NA
ATOM      4  C6  T22     1      93.834 119.023 144.360  0.00  0.00    +0.186 A 
ATOM      5  C7  T22     1      93.744 119.157 142.960  0.00  0.00    +0.033 A 
ATOM      6  C8  T22     1      92.517 119.401 142.312  0.00  0.00    +0.012 A 
ATOM      7  C9  T22     1      92.474 119.526 140.914  0.00  0.00    +0.001 A 
ATOM      8  C10 T22     1      93.652 119.408 140.160  0.00  0.00    +0.001 A 
ATOM      9  C11 T22     1      94.879 119.162 140.799  0.00  0.00    +0.014 A 
ATOM     10  C12 T22     1      94.937 119.034 142.202  0.00  0.00    +0.049 A 
ATOM     11  C13 T22     1      96.161 118.777 142.873  0.00  0.00    +0.241 A 
ATOM     12  N4  T22     1      96.215 118.654 144.220  0.00  0.00    -0.125 NA
ATOM     13  N5  T22     1      95.059 118.798 144.906  0.00  0.00    -0.189 N 
ENDROOT
BRANCH   1  17
ATOM     14  C1  T22     1      97.391 118.015 149.528  0.00  0.00    +0.000 A 
ATOM     15  C2  T22     1      96.691 119.228 149.429  0.00  0.00    +0.001 A 
ATOM     16  C3  T22     1      95.822 119.452 148.350  0.00  0.00    +0.011 A 
ATOM     17  C4  T22     1      95.636 118.466 147.358  0.00  0.00    +0.021 A 
ATOM     18  C20 T22     1      96.351 117.254 147.465  0.00  0.00    +0.011 A 
ATOM     19  C21 T22     1      97.222 117.030 148.544  0.00  0.00    +0.001 A 
ENDBRANCH   1  17
BRANCH  11  20
ATOM     20  O1  T22     1      97.317 118.648 142.129  0.00  0.00    -0.470 OA
BRANCH  20  21
ATOM     21  C14 T22     1      98.204 119.756 141.890  0.00  0.00    +0.266 C 
BRANCH  21  22
ATOM     22  C15 T22     1      98.263 120.017 140.395  0.00  0.00    -0.007 A 
ATOM     23  C16 T22     1      98.259 121.329 139.890  0.00  0.00    +0.026 A 
ATOM     24  C17 T22     1      98.312 121.522 138.498  0.00  0.00    +0.111 A 
ATOM     25  N3  T22     1      98.366 120.500 137.619  0.00  0.00    -0.263 NA
ATOM     26  C18 T22     1      98.365 119.242 138.103  0.00  0.00    +0.111 A 
ATOM     27  C19 T22     1      98.315 118.954 139.478  0.00  0.00    +0.026 A 
ENDBRANCH  21  22
ENDBRANCH  20  21
ENDBRANCH  11  20
TORSDOF 4
ENDMDL
MODEL 5
REMARK VINA RESULT:    -9.386      5.170      9.385
REMARK INTER + INTRA:         -11.061
REMARK INTER:                 -10.377
REMARK INTRA:                  -0.684
REMARK UNBOUND:                 0.520
REMARK  Name = ligands_pdb/TRN_CHEMBL52672.pdb
REMARK  4 active torsions:
REMARK  status: ('A' for Active; 'I' for Inactive)
REMARK    1  A    between atoms: C4_4  and  C5_5
REMARK    2  A    between atoms: C13_15  and  O1_16
REMARK    3  A    between atoms: O1_16  and  C14_17
REMARK    4  A    between atoms: C14_17  and  C15_18
REMARK                            x       y       z     vdW  Elec       q    Type
REMARK                         _______ _______ _______ _____ _____    ______ ____
ROOT
ATOM      1  C5  T22     1      92.167 120.939 142.805  0.00  0.00    +0.185 A 
ATOM      2  N1  T22     1      92.577 121.408 141.566  0.00  0.00    -0.127 NA
ATOM      3  N2  T22     1      93.859 121.150 141.429  0.00  0.00    -0.127 NA
ATOM      4  C6  T22     1      94.210 120.525 142.576  0.00  0.00    +0.186 A 
ATOM      5  C7  T22     1      95.489 120.030 142.901  0.00  0.00    +0.033 A 
ATOM      6  C8  T22     1      96.585 120.167 142.027  0.00  0.00    +0.012 A 
ATOM      7  C9  T22     1      97.842 119.658 142.391  0.00  0.00    +0.001 A 
ATOM      8  C10 T22     1      98.009 119.011 143.625  0.00  0.00    +0.001 A 
ATOM      9  C11 T22     1      96.919 118.868 144.501  0.00  0.00    +0.014 A 
ATOM     10  C12 T22     1      95.652 119.375 144.148  0.00  0.00    +0.049 A 
ATOM     11  C13 T22     1      94.532 119.237 145.010  0.00  0.00    +0.241 A 
ATOM     12  N4  T22     1      93.316 119.724 144.670  0.00  0.00    -0.125 NA
ATOM     13  N5  T22     1      93.209 120.359 143.481  0.00  0.00    -0.189 N 
ENDROOT
BRANCH   1  17
ATOM     14  C1  T22     1      88.110 121.341 144.158  0.00  0.00    +0.000 A 
ATOM     15  C2  T22     1      88.868 122.480 143.848  0.00  0.00    +0.001 A 
ATOM     16  C3  T22     1      90.194 122.344 143.407  0.00  0.00    +0.011 A 
ATOM     17  C4  T22     1      90.778 121.067 143.265  0.00  0.00    +0.021 A 
ATOM     18  C20 T22     1      90.007 119.930 143.587  0.00  0.00    +0.011 A 
ATOM     19  C21 T22     1      88.682 120.066 144.029  0.00  0.00    +0.001 A 
ENDBRANCH   1  17
BRANCH  11  20
ATOM     20  O1  T22     1      94.695 118.590 146.218  0.00  0.00    -0.470 OA
BRANCH  20  21
ATOM     21  C14 T22     1      95.160 119.271 147.398  0.00  0.00    +0.266 C 
BRANCH  21  22
ATOM     22  C15 T22     1      95.984 118.300 148.226  0.00  0.00    -0.007 A 
ATOM     23  C16 T22     1      96.661 118.728 149.380  0.00  0.00    +0.026 A 
ATOM     24  C17 T22     1      97.415 117.794 150.113  0.00  0.00    +0.111 A 
ATOM     25  N3  T22     1      97.520 116.498 149.757  0.00  0.00    -0.263 NA
ATOM     26  C18 T22     1      96.875 116.087 148.647  0.00  0.00    +0.111 A 
ATOM     27  C19 T22     1      96.098 116.949 147.853  0.00  0.00    +0.026 A 
ENDBRANCH  21  22
ENDBRANCH  20  21
ENDBRANCH  11  20
TORSDOF 4
ENDMDL
MODEL 6
REMARK VINA RESULT:    -8.975      7.899      9.841
REMARK INTER + INTRA:         -10.553
REMARK INTER:                  -9.410
REMARK INTRA:                  -1.143
REMARK UNBOUND:                 0.520
REMARK  Name = ligands_pdb/TRN_CHEMBL52672.pdb
REMARK  4 active torsions:
REMARK  status: ('A' for Active; 'I' for Inactive)
REMARK    1  A    between atoms: C4_4  and  C5_5
REMARK    2  A    between atoms: C13_15  and  O1_16
REMARK    3  A    between atoms: O1_16  and  C14_17
REMARK    4  A    between atoms: C14_17  and  C15_18
REMARK                            x       y       z     vdW  Elec       q    Type
REMARK                         _______ _______ _______ _____ _____    ______ ____
ROOT
ATOM      1  C5  T22     1      97.838 120.291 140.049  0.00  0.00    +0.185 A 
ATOM      2  N1  T22     1      98.697 119.339 140.575  0.00  0.00    -0.127 NA
ATOM      3  N2  T22     1      98.241 118.974 141.754  0.00  0.00    -0.127 NA
ATOM      4  C6  T22     1      97.112 119.699 141.926  0.00  0.00    +0.186 A 
ATOM      5  C7  T22     1      96.246 119.648 143.037  0.00  0.00    +0.033 A 
ATOM      6  C8  T22     1      96.500 118.810 144.141  0.00  0.00    +0.012 A 
ATOM      7  C9  T22     1      95.610 118.790 145.226  0.00  0.00    +0.001 A 
ATOM      8  C10 T22     1      94.465 119.603 145.214  0.00  0.00    +0.001 A 
ATOM      9  C11 T22     1      94.204 120.438 144.115  0.00  0.00    +0.014 A 
ATOM     10  C12 T22     1      95.089 120.469 143.018  0.00  0.00    +0.049 A 
ATOM     11  C13 T22     1      94.846 121.297 141.891  0.00  0.00    +0.241 A 
ATOM     12  N4  T22     1      95.697 121.325 140.839  0.00  0.00    -0.125 NA
ATOM     13  N5  T22     1      96.797 120.542 140.906  0.00  0.00    -0.189 N 
ENDROOT
BRANCH   1  17
ATOM     14  C1  T22     1      98.508 122.047 136.187  0.00  0.00    +0.000 A 
ATOM     15  C2  T22     1      98.412 120.654 136.323  0.00  0.00    +0.001 A 
ATOM     16  C3  T22     1      98.194 120.085 137.588  0.00  0.00    +0.011 A 
ATOM     17  C4  T22     1      98.063 120.900 138.732  0.00  0.00    +0.021 A 
ATOM     18  C20 T22     1      98.169 122.299 138.583  0.00  0.00    +0.011 A 
ATOM     19  C21 T22     1      98.390 122.869 137.318  0.00  0.00    +0.001 A 
ENDBRANCH   1  17
BRANCH  11  20
ATOM     20  O1  T22     1      93.713 122.086 141.874  0.00  0.00    -0.470 OA
BRANCH  20  21
ATOM     21  C14 T22     1      92.749 122.024 140.807  0.00  0.00    +0.266 C 
BRANCH  21  22
ATOM     22  C15 T22     1      92.161 120.624 140.766  0.00  0.00    -0.007 A 
ATOM     23  C16 T22     1      92.399 119.772 139.675  0.00  0.00    +0.026 A 
ATOM     24  C17 T22     1      91.831 118.486 139.679  0.00  0.00    +0.111 A 
ATOM     25  N3  T22     1      91.061 118.029 140.688  0.00  0.00    -0.263 NA
ATOM     26  C18 T22     1      90.828 118.848 141.733  0.00  0.00    +0.111 A 
ATOM     27  C19 T22     1      91.354 120.149 141.815  0.00  0.00    +0.026 A 
ENDBRANCH  21  22
ENDBRANCH  20  21
ENDBRANCH  11  20
TORSDOF 4
ENDMDL
MODEL 7
REMARK VINA RESULT:    -8.720      7.897      9.840
REMARK INTER + INTRA:         -10.239
REMARK INTER:                  -9.396
REMARK INTRA:                  -0.844
REMARK UNBOUND:                 0.520
REMARK  Name = ligands_pdb/TRN_CHEMBL52672.pdb
REMARK  4 active torsions:
REMARK  status: ('A' for Active; 'I' for Inactive)
REMARK    1  A    between atoms: C4_4  and  C5_5
REMARK    2  A    between atoms: C13_15  and  O1_16
REMARK    3  A    between atoms: O1_16  and  C14_17
REMARK    4  A    between atoms: C14_17  and  C15_18
REMARK                            x       y       z     vdW  Elec       q    Type
REMARK                         _______ _______ _______ _____ _____    ______ ____
ROOT
ATOM      1  C5  T22     1      97.766 120.243 140.136  0.00  0.00    +0.185 A 
ATOM      2  N1  T22     1      98.645 119.320 140.681  0.00  0.00    -0.127 NA
ATOM      3  N2  T22     1      98.198 118.972 141.868  0.00  0.00    -0.127 NA
ATOM      4  C6  T22     1      97.054 119.677 142.026  0.00  0.00    +0.186 A 
ATOM      5  C7  T22     1      96.190 119.631 143.138  0.00  0.00    +0.033 A 
ATOM      6  C8  T22     1      96.462 118.823 144.260  0.00  0.00    +0.012 A 
ATOM      7  C9  T22     1      95.574 118.807 145.347  0.00  0.00    +0.001 A 
ATOM      8  C10 T22     1      94.413 119.596 145.318  0.00  0.00    +0.001 A 
ATOM      9  C11 T22     1      94.133 120.403 144.202  0.00  0.00    +0.014 A 
ATOM     10  C12 T22     1      95.017 120.427 143.103  0.00  0.00    +0.049 A 
ATOM     11  C13 T22     1      94.756 121.226 141.959  0.00  0.00    +0.241 A 
ATOM     12  N4  T22     1      95.605 121.250 140.906  0.00  0.00    -0.125 NA
ATOM     13  N5  T22     1      96.721 120.491 140.988  0.00  0.00    -0.189 N 
ENDROOT
BRANCH   1  17
ATOM     14  C1  T22     1      98.396 121.929 136.236  0.00  0.00    +0.000 A 
ATOM     15  C2  T22     1      98.277 120.540 136.395  0.00  0.00    +0.001 A 
ATOM     16  C3  T22     1      98.072 119.994 137.672  0.00  0.00    +0.011 A 
ATOM     17  C4  T22     1      97.978 120.828 138.806  0.00  0.00    +0.021 A 
ATOM     18  C20 T22     1      98.107 122.223 138.633  0.00  0.00    +0.011 A 
ATOM     19  C21 T22     1      98.314 122.769 137.356  0.00  0.00    +0.001 A 
ENDBRANCH   1  17
BRANCH  11  20
ATOM     20  O1  T22     1      93.607 121.992 141.927  0.00  0.00    -0.470 OA
BRANCH  20  21
ATOM     21  C14 T22     1      92.420 121.566 141.235  0.00  0.00    +0.266 C 
BRANCH  21  22
ATOM     22  C15 T22     1      91.316 121.346 142.254  0.00  0.00    -0.007 A 
ATOM     23  C16 T22     1      90.980 120.052 142.688  0.00  0.00    +0.026 A 
ATOM     24  C17 T22     1      89.948 119.897 143.631  0.00  0.00    +0.111 A 
ATOM     25  N3  T22     1      89.260 120.939 144.141  0.00  0.00    -0.263 NA
ATOM     26  C18 T22     1      89.578 122.180 143.722  0.00  0.00    +0.111 A 
ATOM     27  C19 T22     1      90.595 122.431 142.783  0.00  0.00    +0.026 A 
ENDBRANCH  21  22
ENDBRANCH  20  21
ENDBRANCH  11  20
TORSDOF 4
ENDMDL
MODEL 8
REMARK VINA RESULT:    -8.597     11.063     13.000
REMARK INTER + INTRA:         -10.088
REMARK INTER:                  -8.937
REMARK INTRA:                  -1.151
REMARK UNBOUND:                 0.520
REMARK  Name = ligands_pdb/TRN_CHEMBL52672.pdb
REMARK  4 active torsions:
REMARK  status: ('A' for Active; 'I' for Inactive)
REMARK    1  A    between atoms: C4_4  and  C5_5
REMARK    2  A    between atoms: C13_15  and  O1_16
REMARK    3  A    between atoms: O1_16  and  C14_17
REMARK    4  A    between atoms: C14_17  and  C15_18
REMARK                            x       y       z     vdW  Elec       q    Type
REMARK                         _______ _______ _______ _____ _____    ______ ____
ROOT
ATOM      1  C5  T22     1      97.120 124.696 137.356  0.00  0.00    +0.185 A 
ATOM      2  N1  T22     1      98.492 124.852 137.223  0.00  0.00    -0.127 NA
ATOM      3  N2  T22     1      99.066 123.691 137.451  0.00  0.00    -0.127 NA
ATOM      4  C6  T22     1      98.043 122.845 137.710  0.00  0.00    +0.186 A 
ATOM      5  C7  T22     1      98.148 121.469 137.997  0.00  0.00    +0.033 A 
ATOM      6  C8  T22     1      99.394 120.816 138.068  0.00  0.00    +0.012 A 
ATOM      7  C9  T22     1      99.452 119.443 138.356  0.00  0.00    +0.001 A 
ATOM      8  C10 T22     1      98.269 118.719 138.574  0.00  0.00    +0.001 A 
ATOM      9  C11 T22     1      97.023 119.363 138.502  0.00  0.00    +0.014 A 
ATOM     10  C12 T22     1      96.950 120.742 138.213  0.00  0.00    +0.049 A 
ATOM     11  C13 T22     1      95.704 121.417 138.126  0.00  0.00    +0.241 A 
ATOM     12  N4  T22     1      95.636 122.740 137.850  0.00  0.00    -0.125 NA
ATOM     13  N5  T22     1      96.801 123.400 137.670  0.00  0.00    -0.189 N 
ENDROOT
BRANCH   1  17
ATOM     14  C1  T22     1      94.391 127.956 136.745  0.00  0.00    +0.000 A 
ATOM     15  C2  T22     1      94.608 127.015 135.727  0.00  0.00    +0.001 A 
ATOM     16  C3  T22     1      95.503 125.951 135.931  0.00  0.00    +0.011 A 
ATOM     17  C4  T22     1      96.186 125.811 137.157  0.00  0.00    +0.021 A 
ATOM     18  C20 T22     1      95.965 126.768 138.170  0.00  0.00    +0.011 A 
ATOM     19  C21 T22     1      95.072 127.833 137.965  0.00  0.00    +0.001 A 
ENDBRANCH   1  17
BRANCH  11  20
ATOM     20  O1  T22     1      94.541 120.700 138.328  0.00  0.00    -0.470 OA
BRANCH  20  21
ATOM     21  C14 T22     1      93.657 120.966 139.432  0.00  0.00    +0.266 C 
BRANCH  21  22
ATOM     22  C15 T22     1      94.225 120.308 140.678  0.00  0.00    -0.007 A 
ATOM     23  C16 T22     1      94.776 121.079 141.715  0.00  0.00    +0.026 A 
ATOM     24  C17 T22     1      95.293 120.427 142.848  0.00  0.00    +0.111 A 
ATOM     25  N3  T22     1      95.286 119.085 142.986  0.00  0.00    -0.263 NA
ATOM     26  C18 T22     1      94.762 118.344 141.990  0.00  0.00    +0.111 A 
ATOM     27  C19 T22     1      94.222 118.910 140.821  0.00  0.00    +0.026 A 
ENDBRANCH  21  22
ENDBRANCH  20  21
ENDBRANCH  11  20
TORSDOF 4
ENDMDL
MODEL 9
REMARK VINA RESULT:    -8.535      8.188     11.193
REMARK INTER + INTRA:         -10.011
REMARK INTER:                  -9.428
REMARK INTRA:                  -0.583
REMARK UNBOUND:                 0.520
REMARK  Name = ligands_pdb/TRN_CHEMBL52672.pdb
REMARK  4 active torsions:
REMARK  status: ('A' for Active; 'I' for Inactive)
REMARK    1  A    between atoms: C4_4  and  C5_5
REMARK    2  A    between atoms: C13_15  and  O1_16
REMARK    3  A    between atoms: O1_16  and  C14_17
REMARK    4  A    between atoms: C14_17  and  C15_18
REMARK                            x       y       z     vdW  Elec       q    Type
REMARK                         _______ _______ _______ _____ _____    ______ ____
ROOT
ATOM      1  C5  T22     1      95.551 121.716 137.987  0.00  0.00    +0.185 A 
ATOM      2  N1  T22     1      94.532 121.597 137.054  0.00  0.00    -0.127 NA
ATOM      3  N2  T22     1      93.505 121.013 137.634  0.00  0.00    -0.127 NA
ATOM      4  C6  T22     1      93.908 120.793 138.907  0.00  0.00    +0.186 A 
ATOM      5  C7  T22     1      93.145 120.203 139.935  0.00  0.00    +0.033 A 
ATOM      6  C8  T22     1      91.832 119.741 139.716  0.00  0.00    +0.012 A 
ATOM      7  C9  T22     1      91.107 119.160 140.770  0.00  0.00    +0.001 A 
ATOM      8  C10 T22     1      91.689 119.039 142.041  0.00  0.00    +0.001 A 
ATOM      9  C11 T22     1      92.997 119.500 142.267  0.00  0.00    +0.014 A 
ATOM     10  C12 T22     1      93.736 120.086 141.219  0.00  0.00    +0.049 A 
ATOM     11  C13 T22     1      95.056 120.567 141.420  0.00  0.00    +0.241 A 
ATOM     12  N4  T22     1      95.764 121.129 140.413  0.00  0.00    -0.125 NA
ATOM     13  N5  T22     1      95.171 121.204 139.201  0.00  0.00    -0.189 N 
ENDROOT
BRANCH   1  17
ATOM     14  C1  T22     1      99.336 123.506 137.029  0.00  0.00    +0.000 A 
ATOM     15  C2  T22     1      99.247 122.126 137.269  0.00  0.00    +0.001 A 
ATOM     16  C3  T22     1      98.007 121.546 137.582  0.00  0.00    +0.011 A 
ATOM     17  C4  T22     1      96.841 122.336 137.655  0.00  0.00    +0.021 A 
ATOM     18  C20 T22     1      96.945 123.723 137.419  0.00  0.00    +0.011 A 
ATOM     19  C21 T22     1      98.185 124.304 137.107  0.00  0.00    +0.001 A 
ENDBRANCH   1  17
BRANCH  11  20
ATOM     20  O1  T22     1      95.622 120.459 142.675  0.00  0.00    -0.470 OA
BRANCH  20  21
ATOM     21  C14 T22     1      96.239 119.243 143.136  0.00  0.00    +0.266 C 
BRANCH  21  22
ATOM     22  C15 T22     1      95.995 119.112 144.630  0.00  0.00    -0.007 A 
ATOM     23  C16 T22     1      97.013 118.673 145.493  0.00  0.00    +0.026 A 
ATOM     24  C17 T22     1      96.740 118.563 146.867  0.00  0.00    +0.111 A 
ATOM     25  N3  T22     1      95.537 118.861 147.400  0.00  0.00    -0.263 NA
ATOM     26  C18 T22     1      94.559 119.277 146.573  0.00  0.00    +0.111 A 
ATOM     27  C19 T22     1      94.740 119.417 145.186  0.00  0.00    +0.026 A 
ENDBRANCH  21  22
ENDBRANCH  20  21
ENDBRANCH  11  20
TORSDOF 4
ENDMDL
MODEL 10
REMARK VINA RESULT:    -8.413      6.869     10.352
REMARK INTER + INTRA:          -9.860
REMARK INTER:                  -9.045
REMARK INTRA:                  -0.815
REMARK UNBOUND:                 0.520
REMARK  Name = ligands_pdb/TRN_CHEMBL52672.pdb
REMARK  4 active torsions:
REMARK  status: ('A' for Active; 'I' for Inactive)
REMARK    1  A    between atoms: C4_4  and  C5_5
REMARK    2  A    between atoms: C13_15  and  O1_16
REMARK    3  A    between atoms: O1_16  and  C14_17
REMARK    4  A    between atoms: C14_17  and  C15_18
REMARK                            x       y       z     vdW  Elec       q    Type
REMARK                         _______ _______ _______ _____ _____    ______ ____
ROOT
ATOM      1  C5  T22     1      91.353 119.222 141.578  0.00  0.00    +0.185 A 
ATOM      2  N1  T22     1      90.644 119.580 142.715  0.00  0.00    -0.127 NA
ATOM      3  N2  T22     1      91.460 119.530 143.746  0.00  0.00    -0.127 NA
ATOM      4  C6  T22     1      92.650 119.152 143.225  0.00  0.00    +0.186 A 
ATOM      5  C7  T22     1      93.855 118.977 143.935  0.00  0.00    +0.033 A 
ATOM      6  C8  T22     1      93.933 119.165 145.329  0.00  0.00    +0.012 A 
ATOM      7  C9  T22     1      95.155 118.980 145.996  0.00  0.00    +0.001 A 
ATOM      8  C10 T22     1      96.301 118.607 145.275  0.00  0.00    +0.001 A 
ATOM      9  C11 T22     1      96.231 118.420 143.884  0.00  0.00    +0.014 A 
ATOM     10  C12 T22     1      95.011 118.603 143.202  0.00  0.00    +0.049 A 
ATOM     11  C13 T22     1      94.913 118.429 141.797  0.00  0.00    +0.241 A 
ATOM     12  N4  T22     1      93.741 118.605 141.143  0.00  0.00    -0.125 NA
ATOM     13  N5  T22     1      92.661 118.941 141.881  0.00  0.00    -0.189 N 
ENDROOT
BRANCH   1  17
ATOM     14  C1  T22     1      89.526 119.140 137.692  0.00  0.00    +0.000 A 
ATOM     15  C2  T22     1      90.351 120.212 138.063  0.00  0.00    +0.001 A 
ATOM     16  C3  T22     1      90.945 120.235 139.335  0.00  0.00    +0.011 A 
ATOM     17  C4  T22     1      90.727 119.184 140.250  0.00  0.00    +0.021 A 
ATOM     18  C20 T22     1      89.889 118.115 139.868  0.00  0.00    +0.011 A 
ATOM     19  C21 T22     1      89.293 118.093 138.597  0.00  0.00    +0.001 A 
ENDBRANCH   1  17
BRANCH  11  20
ATOM     20  O1  T22     1      96.044 118.075 141.088  0.00  0.00    -0.470 OA
BRANCH  20  21
ATOM     21  C14 T22     1      96.064 118.024 139.649  0.00  0.00    +0.266 C 
BRANCH  21  22
ATOM     22  C15 T22     1      97.233 118.856 139.151  0.00  0.00    -0.007 A 
ATOM     23  C16 T22     1      97.427 119.079 137.777  0.00  0.00    +0.026 A 
ATOM     24  C17 T22     1      98.526 119.852 137.361  0.00  0.00    +0.111 A 
ATOM     25  N3  T22     1      99.408 120.394 138.226  0.00  0.00    -0.263 NA
ATOM     26  C18 T22     1      99.226 120.176 139.543  0.00  0.00    +0.111 A 
ATOM     27  C19 T22     1      98.157 119.417 140.050  0.00  0.00    +0.026 A 
ENDBRANCH  21  22
ENDBRANCH  20  21
ENDBRANCH  11  20
TORSDOF 4
ENDMDL
