MODEL 1
REMARK VINA RESULT:    -9.597      0.000      0.000
REMARK INTER + INTRA:         -13.864
REMARK INTER:                 -12.402
REMARK INTRA:                  -1.461
REMARK UNBOUND:                -1.461
REMARK  Name = ligands_pdb/TRN_CHEMBL332893.pdb
REMARK  7 active torsions:
REMARK  status: ('A' for Active; 'I' for Inactive)
REMARK    1  A    between atoms: C1_1  and  C2_2
REMARK    2  A    between atoms: C2_2  and  C3_3
REMARK    3  A    between atoms: C4_6  and  C5_7
REMARK    4  A    between atoms: C9_13  and  O2_14
REMARK    5  A    between atoms: O2_14  and  C10_15
REMARK    6  A    between atoms: C10_15  and  C11_16
REMARK    7  A    between atoms: C15_20  and  C16_21
REMARK                            x       y       z     vdW  Elec       q    Type
REMARK                         _______ _______ _______ _____ _____    ______ ____
ROOT
ATOM      1  C5  T13     1      94.441 118.402 145.083  0.00  0.00    +0.243 A 
ATOM      2  N2  T13     1      93.327 117.585 144.939  0.00  0.00    -0.122 NA
ATOM      3  N3  T13     1      92.796 117.799 143.754  0.00  0.00    -0.127 NA
ATOM      4  C6  T13     1      93.588 118.739 143.197  0.00  0.00    +0.182 A 
ATOM      5  C7  T13     1      93.441 119.311 141.923  0.00  0.00    +0.010 A 
ATOM      6  C8  T13     1      94.370 120.283 141.508  0.00  0.00    +0.026 A 
ATOM      7  C9  T13     1      95.423 120.664 142.370  0.00  0.00    +0.237 A 
ATOM      8  N5  T13     1      95.549 120.100 143.597  0.00  0.00    -0.125 NA
ATOM      9  N6  T13     1      94.634 119.167 143.958  0.00  0.00    -0.185 N 
ATOM     10  C17 T13     1      94.104 120.829 140.106  0.00  0.00    +0.025 C 
ATOM     11  C18 T13     1      92.663 121.415 140.114  0.00  0.00    +0.009 C 
ATOM     12  C19 T13     1      91.633 120.334 140.578  0.00  0.00    +0.009 C 
ATOM     13  C20 T13     1      92.356 118.994 140.896  0.00  0.00    +0.023 C 
ATOM     14  C21 T13     1      93.085 118.531 139.601  0.00  0.00    +0.009 C 
ATOM     15  C22 T13     1      94.115 119.612 139.136  0.00  0.00    +0.009 C 
ENDROOT
BRANCH   1  19
ATOM     16  C3  T13     1      96.415 117.938 147.837  0.00  0.00    +0.172 A 
ATOM     17  N1  T13     1      96.157 119.278 148.029  0.00  0.00    -0.061 NA
ATOM     18  O1  T13     1      95.346 119.540 146.928  0.00  0.00    -0.329 OA
ATOM     19  C4  T13     1      95.204 118.398 146.222  0.00  0.00    +0.298 A 
ATOM     20  N7  T13     1      95.856 117.392 146.764  0.00  0.00    -0.189 NA
BRANCH  16  22
ATOM     21  C1  T13     1      97.460 117.896 150.138  0.00  0.00    +0.012 C 
ATOM     22  C2  T13     1      97.275 117.158 148.796  0.00  0.00    +0.076 C 
ENDBRANCH  16  22
ENDBRANCH   1  19
BRANCH   7  23
ATOM     23  O2  T13     1      96.318 121.620 141.940  0.00  0.00    -0.469 OA
BRANCH  23  24
ATOM     24  C10 T13     1      97.656 121.277 141.524  0.00  0.00    +0.286 C 
BRANCH  24  25
ATOM     25  C11 T13     1      97.679 120.727 140.102  0.00  0.00    +0.079 A 
ATOM     26  C12 T13     1      97.813 119.353 139.815  0.00  0.00    +0.027 A 
ATOM     27  C13 T13     1      97.824 118.936 138.474  0.00  0.00    +0.004 A 
ATOM     28  C14 T13     1      97.702 119.905 137.466  0.00  0.00    +0.023 A 
ATOM     29  C15 T13     1      97.575 121.256 137.838  0.00  0.00    +0.039 A 
ATOM     30  C16 T13     1      97.433 122.348 136.791  0.00  0.00    +0.065 C 
ATOM     31  N4  T13     1      97.562 121.655 139.127  0.00  0.00    -0.253 NA
ENDBRANCH  24  25
ENDBRANCH  23  24
ENDBRANCH   7  23
TORSDOF 5
ENDMDL
MODEL 2
REMARK VINA RESULT:    -8.459      2.136      4.443
REMARK INTER + INTRA:         -12.393
REMARK INTER:                 -11.104
REMARK INTRA:                  -1.289
REMARK UNBOUND:                -1.461
REMARK  Name = ligands_pdb/TRN_CHEMBL332893.pdb
REMARK  7 active torsions:
REMARK  status: ('A' for Active; 'I' for Inactive)
REMARK    1  A    between atoms: C1_1  and  C2_2
REMARK    2  A    between atoms: C2_2  and  C3_3
REMARK    3  A    between atoms: C4_6  and  C5_7
REMARK    4  A    between atoms: C9_13  and  O2_14
REMARK    5  A    between atoms: O2_14  and  C10_15
REMARK    6  A    between atoms: C10_15  and  C11_16
REMARK    7  A    between atoms: C15_20  and  C16_21
REMARK                            x       y       z     vdW  Elec       q    Type
REMARK                         _______ _______ _______ _____ _____    ______ ____
ROOT
ATOM      1  C5  T13     1      96.676 118.734 145.227  0.00  0.00    +0.243 A 
ATOM      2  N2  T13     1      97.948 118.982 144.727  0.00  0.00    -0.122 NA
ATOM      3  N3  T13     1      97.872 119.104 143.419  0.00  0.00    -0.127 NA
ATOM      4  C6  T13     1      96.562 118.929 143.142  0.00  0.00    +0.182 A 
ATOM      5  C7  T13     1      95.962 118.966 141.873  0.00  0.00    +0.010 A 
ATOM      6  C8  T13     1      94.573 118.761 141.777  0.00  0.00    +0.026 A 
ATOM      7  C9  T13     1      93.815 118.524 142.945  0.00  0.00    +0.237 A 
ATOM      8  N5  T13     1      94.411 118.493 144.162  0.00  0.00    -0.125 NA
ATOM      9  N6  T13     1      95.751 118.695 144.212  0.00  0.00    -0.185 N 
ATOM     10  C17 T13     1      94.040 118.825 140.347  0.00  0.00    +0.025 C 
ATOM     11  C18 T13     1      94.811 117.750 139.528  0.00  0.00    +0.009 C 
ATOM     12  C19 T13     1      96.354 117.977 139.639  0.00  0.00    +0.009 C 
ATOM     13  C20 T13     1      96.659 119.211 140.537  0.00  0.00    +0.023 C 
ATOM     14  C21 T13     1      95.971 120.448 139.891  0.00  0.00    +0.009 C 
ATOM     15  C22 T13     1      94.428 120.220 139.780  0.00  0.00    +0.009 C 
ENDROOT
BRANCH   1  19
ATOM     16  C3  T13     1      96.549 118.226 148.607  0.00  0.00    +0.172 A 
ATOM     17  N1  T13     1      95.206 118.465 148.415  0.00  0.00    -0.061 NA
ATOM     18  O1  T13     1      95.182 118.684 147.039  0.00  0.00    -0.329 OA
ATOM     19  C4  T13     1      96.441 118.562 146.567  0.00  0.00    +0.298 A 
ATOM     20  N7  T13     1      97.305 118.279 147.518  0.00  0.00    -0.189 NA
BRANCH  16  22
ATOM     21  C1  T13     1      97.448 116.426 150.137  0.00  0.00    +0.012 C 
ATOM     22  C2  T13     1      97.105 117.921 149.972  0.00  0.00    +0.076 C 
ENDBRANCH  16  22
ENDBRANCH   1  19
BRANCH   7  23
ATOM     23  O2  T13     1      92.456 118.325 142.823  0.00  0.00    -0.469 OA
BRANCH  23  24
ATOM     24  C10 T13     1      91.500 119.330 143.219  0.00  0.00    +0.286 C 
BRANCH  24  25
ATOM     25  C11 T13     1      91.536 120.536 142.287  0.00  0.00    +0.079 A 
ATOM     26  C12 T13     1      92.155 121.755 142.636  0.00  0.00    +0.027 A 
ATOM     27  C13 T13     1      92.140 122.815 141.714  0.00  0.00    +0.004 A 
ATOM     28  C14 T13     1      91.506 122.621 140.476  0.00  0.00    +0.023 A 
ATOM     29  C15 T13     1      90.910 121.375 140.208  0.00  0.00    +0.039 A 
ATOM     30  C16 T13     1      90.217 121.106 138.884  0.00  0.00    +0.065 C 
ATOM     31  N4  T13     1      90.928 120.358 141.094  0.00  0.00    -0.253 NA
ENDBRANCH  24  25
ENDBRANCH  23  24
ENDBRANCH   7  23
TORSDOF 5
ENDMDL
MODEL 3
REMARK VINA RESULT:    -8.061      4.418      5.899
REMARK INTER + INTRA:         -11.879
REMARK INTER:                 -11.045
REMARK INTRA:                  -0.834
REMARK UNBOUND:                -1.461
REMARK  Name = ligands_pdb/TRN_CHEMBL332893.pdb
REMARK  7 active torsions:
REMARK  status: ('A' for Active; 'I' for Inactive)
REMARK    1  A    between atoms: C1_1  and  C2_2
REMARK    2  A    between atoms: C2_2  and  C3_3
REMARK    3  A    between atoms: C4_6  and  C5_7
REMARK    4  A    between atoms: C9_13  and  O2_14
REMARK    5  A    between atoms: O2_14  and  C10_15
REMARK    6  A    between atoms: C10_15  and  C11_16
REMARK    7  A    between atoms: C15_20  and  C16_21
REMARK                            x       y       z     vdW  Elec       q    Type
REMARK                         _______ _______ _______ _____ _____    ______ ____
ROOT
ATOM      1  C5  T13     1      93.281 113.285 146.414  0.00  0.00    +0.243 A 
ATOM      2  N2  T13     1      92.600 112.075 146.440  0.00  0.00    -0.122 NA
ATOM      3  N3  T13     1      91.504 112.190 145.722  0.00  0.00    -0.127 NA
ATOM      4  C6  T13     1      91.531 113.462 145.270  0.00  0.00    +0.182 A 
ATOM      5  C7  T13     1      90.574 114.081 144.451  0.00  0.00    +0.010 A 
ATOM      6  C8  T13     1      90.771 115.423 144.078  0.00  0.00    +0.026 A 
ATOM      7  C9  T13     1      91.916 116.118 144.528  0.00  0.00    +0.237 A 
ATOM      8  N5  T13     1      92.831 115.504 145.318  0.00  0.00    -0.125 NA
ATOM      9  N6  T13     1      92.603 114.209 145.655  0.00  0.00    -0.185 N 
ATOM     10  C17 T13     1      89.662 115.983 143.188  0.00  0.00    +0.025 C 
ATOM     11  C18 T13     1      88.328 115.823 143.971  0.00  0.00    +0.009 C 
ATOM     12  C19 T13     1      88.112 114.331 144.388  0.00  0.00    +0.009 C 
ATOM     13  C20 T13     1      89.298 113.451 143.897  0.00  0.00    +0.023 C 
ATOM     14  C21 T13     1      89.370 113.579 142.347  0.00  0.00    +0.009 C 
ATOM     15  C22 T13     1      89.586 115.071 141.930  0.00  0.00    +0.009 C 
ENDROOT
BRANCH   1  19
ATOM     16  C3  T13     1      96.155 114.200 148.026  0.00  0.00    +0.172 A 
ATOM     17  N1  T13     1      96.339 112.837 148.098  0.00  0.00    -0.061 NA
ATOM     18  O1  T13     1      95.189 112.391 147.451  0.00  0.00    -0.329 OA
ATOM     19  C4  T13     1      94.467 113.469 147.076  0.00  0.00    +0.298 A 
ATOM     20  N7  T13     1      95.044 114.600 147.420  0.00  0.00    -0.189 NA
BRANCH  16  22
ATOM     21  C1  T13     1      97.332 114.979 150.122  0.00  0.00    +0.012 C 
ATOM     22  C2  T13     1      97.162 115.160 148.600  0.00  0.00    +0.076 C 
ENDBRANCH  16  22
ENDBRANCH   1  19
BRANCH   7  23
ATOM     23  O2  T13     1      92.084 117.433 144.149  0.00  0.00    -0.469 OA
BRANCH  23  24
ATOM     24  C10 T13     1      93.157 118.244 144.670  0.00  0.00    +0.286 C 
BRANCH  24  25
ATOM     25  C11 T13     1      94.299 118.375 143.667  0.00  0.00    +0.079 A 
ATOM     26  C12 T13     1      95.626 118.659 144.051  0.00  0.00    +0.027 A 
ATOM     27  C13 T13     1      96.615 118.762 143.058  0.00  0.00    +0.004 A 
ATOM     28  C14 T13     1      96.243 118.580 141.717  0.00  0.00    +0.023 A 
ATOM     29  C15 T13     1      94.896 118.304 141.419  0.00  0.00    +0.039 A 
ATOM     30  C16 T13     1      94.437 118.092 139.986  0.00  0.00    +0.065 C 
ATOM     31  N4  T13     1      93.949 118.203 142.373  0.00  0.00    -0.253 NA
ENDBRANCH  24  25
ENDBRANCH  23  24
ENDBRANCH   7  23
TORSDOF 5
ENDMDL
MODEL 4
REMARK VINA RESULT:    -7.952      2.093      7.238
REMARK INTER + INTRA:         -11.738
REMARK INTER:                 -11.016
REMARK INTRA:                  -0.722
REMARK UNBOUND:                -1.461
REMARK  Name = ligands_pdb/TRN_CHEMBL332893.pdb
REMARK  7 active torsions:
REMARK  status: ('A' for Active; 'I' for Inactive)
REMARK    1  A    between atoms: C1_1  and  C2_2
REMARK    2  A    between atoms: C2_2  and  C3_3
REMARK    3  A    between atoms: C4_6  and  C5_7
REMARK    4  A    between atoms: C9_13  and  O2_14
REMARK    5  A    between atoms: O2_14  and  C10_15
REMARK    6  A    between atoms: C10_15  and  C11_16
REMARK    7  A    between atoms: C15_20  and  C16_21
REMARK                            x       y       z     vdW  Elec       q    Type
REMARK                         _______ _______ _______ _____ _____    ______ ____
ROOT
ATOM      1  C5  T13     1      95.541 119.842 139.680  0.00  0.00    +0.243 A 
ATOM      2  N2  T13     1      94.664 120.066 138.626  0.00  0.00    -0.122 NA
ATOM      3  N3  T13     1      93.432 120.032 139.087  0.00  0.00    -0.127 NA
ATOM      4  C6  T13     1      93.575 119.789 140.407  0.00  0.00    +0.182 A 
ATOM      5  C7  T13     1      92.544 119.660 141.352  0.00  0.00    +0.010 A 
ATOM      6  C8  T13     1      92.885 119.405 142.693  0.00  0.00    +0.026 A 
ATOM      7  C9  T13     1      94.244 119.284 143.063  0.00  0.00    +0.237 A 
ATOM      8  N5  T13     1      95.226 119.412 142.137  0.00  0.00    -0.125 NA
ATOM      9  N6  T13     1      94.855 119.658 140.856  0.00  0.00    -0.185 N 
ATOM     10  C17 T13     1      91.679 119.286 143.623  0.00  0.00    +0.025 C 
ATOM     11  C18 T13     1      90.783 118.145 143.059  0.00  0.00    +0.009 C 
ATOM     12  C19 T13     1      90.408 118.429 141.568  0.00  0.00    +0.009 C 
ATOM     13  C20 T13     1      91.043 119.767 141.091  0.00  0.00    +0.023 C 
ATOM     14  C21 T13     1      90.506 120.900 142.013  0.00  0.00    +0.009 C 
ATOM     15  C22 T13     1      90.881 120.616 143.504  0.00  0.00    +0.009 C 
ENDROOT
BRANCH   1  19
ATOM     16  C3  T13     1      98.868 119.370 139.044  0.00  0.00    +0.172 A 
ATOM     17  N1  T13     1      98.977 120.609 139.637  0.00  0.00    -0.061 NA
ATOM     18  O1  T13     1      97.639 120.869 139.926  0.00  0.00    -0.329 OA
ATOM     19  C4  T13     1      96.900 119.821 139.503  0.00  0.00    +0.298 A 
ATOM     20  N7  T13     1      97.638 118.880 138.954  0.00  0.00    -0.189 NA
BRANCH  16  22
ATOM     21  C1  T13     1     101.259 118.712 139.533  0.00  0.00    +0.012 C 
ATOM     22  C2  T13     1     100.080 118.631 138.542  0.00  0.00    +0.076 C 
ENDBRANCH  16  22
ENDBRANCH   1  19
BRANCH   7  23
ATOM     23  O2  T13     1      94.551 119.033 144.383  0.00  0.00    -0.469 OA
BRANCH  23  24
ATOM     24  C10 T13     1      94.852 117.703 144.855  0.00  0.00    +0.286 C 
BRANCH  24  25
ATOM     25  C11 T13     1      95.398 117.724 146.279  0.00  0.00    +0.079 A 
ATOM     26  C12 T13     1      95.567 118.914 147.017  0.00  0.00    +0.027 A 
ATOM     27  C13 T13     1      96.077 118.838 148.323  0.00  0.00    +0.004 A 
ATOM     28  C14 T13     1      96.402 117.578 148.847  0.00  0.00    +0.023 A 
ATOM     29  C15 T13     1      96.206 116.439 148.044  0.00  0.00    +0.039 A 
ATOM     30  C16 T13     1      96.533 115.048 148.560  0.00  0.00    +0.065 C 
ATOM     31  N4  T13     1      95.713 116.514 146.790  0.00  0.00    -0.253 NA
ENDBRANCH  24  25
ENDBRANCH  23  24
ENDBRANCH   7  23
TORSDOF 5
ENDMDL
MODEL 5
REMARK VINA RESULT:    -7.798      4.061      9.147
REMARK INTER + INTRA:         -11.538
REMARK INTER:                 -10.082
REMARK INTRA:                  -1.456
REMARK UNBOUND:                -1.461
REMARK  Name = ligands_pdb/TRN_CHEMBL332893.pdb
REMARK  7 active torsions:
REMARK  status: ('A' for Active; 'I' for Inactive)
REMARK    1  A    between atoms: C1_1  and  C2_2
REMARK    2  A    between atoms: C2_2  and  C3_3
REMARK    3  A    between atoms: C4_6  and  C5_7
REMARK    4  A    between atoms: C9_13  and  O2_14
REMARK    5  A    between atoms: O2_14  and  C10_15
REMARK    6  A    between atoms: C10_15  and  C11_16
REMARK    7  A    between atoms: C15_20  and  C16_21
REMARK                            x       y       z     vdW  Elec       q    Type
REMARK                         _______ _______ _______ _____ _____    ______ ____
ROOT
ATOM      1  C5  T13     1      97.166 124.946 137.495  0.00  0.00    +0.243 A 
ATOM      2  N2  T13     1      98.552 125.030 137.541  0.00  0.00    -0.122 NA
ATOM      3  N3  T13     1      99.045 123.819 137.683  0.00  0.00    -0.127 NA
ATOM      4  C6  T13     1      97.959 123.018 137.722  0.00  0.00    +0.182 A 
ATOM      5  C7  T13     1      97.952 121.621 137.864  0.00  0.00    +0.010 A 
ATOM      6  C8  T13     1      96.716 120.950 137.884  0.00  0.00    +0.026 A 
ATOM      7  C9  T13     1      95.515 121.684 137.763  0.00  0.00    +0.237 A 
ATOM      8  N5  T13     1      95.540 123.033 137.626  0.00  0.00    -0.125 NA
ATOM      9  N6  T13     1      96.752 123.641 137.611  0.00  0.00    -0.185 N 
ATOM     10  C17 T13     1      96.841 119.436 138.043  0.00  0.00    +0.025 C 
ATOM     11  C18 T13     1      97.624 119.181 139.363  0.00  0.00    +0.009 C 
ATOM     12  C19 T13     1      98.996 119.931 139.341  0.00  0.00    +0.009 C 
ATOM     13  C20 T13     1      99.169 120.709 138.004  0.00  0.00    +0.023 C 
ATOM     14  C21 T13     1      99.093 119.676 136.843  0.00  0.00    +0.009 C 
ATOM     15  C22 T13     1      97.721 118.927 136.865  0.00  0.00    +0.009 C 
ENDROOT
BRANCH   1  19
ATOM     16  C3  T13     1      95.239 127.649 136.673  0.00  0.00    +0.172 A 
ATOM     17  N1  T13     1      95.144 127.776 138.042  0.00  0.00    -0.061 NA
ATOM     18  O1  T13     1      95.917 126.691 138.450  0.00  0.00    -0.329 OA
ATOM     19  C4  T13     1      96.374 126.055 137.350  0.00  0.00    +0.298 A 
ATOM     20  N7  T13     1      95.968 126.629 136.238  0.00  0.00    -0.189 NA
BRANCH  16  22
ATOM     21  C1  T13     1      95.546 129.637 135.142  0.00  0.00    +0.012 C 
ATOM     22  C2  T13     1      94.556 128.619 135.746  0.00  0.00    +0.076 C 
ENDBRANCH  16  22
ENDBRANCH   1  19
BRANCH   7  23
ATOM     23  O2  T13     1      94.317 121.002 137.787  0.00  0.00    -0.469 OA
BRANCH  23  24
ATOM     24  C10 T13     1      93.356 121.189 138.846  0.00  0.00    +0.286 C 
BRANCH  24  25
ATOM     25  C11 T13     1      93.854 120.607 140.165  0.00  0.00    +0.079 A 
ATOM     26  C12 T13     1      94.037 119.223 140.370  0.00  0.00    +0.027 A 
ATOM     27  C13 T13     1      94.500 118.776 141.618  0.00  0.00    +0.004 A 
ATOM     28  C14 T13     1      94.762 119.725 142.619  0.00  0.00    +0.023 A 
ATOM     29  C15 T13     1      94.550 121.086 142.333  0.00  0.00    +0.039 A 
ATOM     30  C16 T13     1      94.823 122.158 143.374  0.00  0.00    +0.065 C 
ATOM     31  N4  T13     1      94.108 121.514 141.133  0.00  0.00    -0.253 NA
ENDBRANCH  24  25
ENDBRANCH  23  24
ENDBRANCH   7  23
TORSDOF 5
ENDMDL
MODEL 6
REMARK VINA RESULT:    -7.745      2.380      5.572
REMARK INTER + INTRA:         -11.470
REMARK INTER:                 -10.795
REMARK INTRA:                  -0.676
REMARK UNBOUND:                -1.461
REMARK  Name = ligands_pdb/TRN_CHEMBL332893.pdb
REMARK  7 active torsions:
REMARK  status: ('A' for Active; 'I' for Inactive)
REMARK    1  A    between atoms: C1_1  and  C2_2
REMARK    2  A    between atoms: C2_2  and  C3_3
REMARK    3  A    between atoms: C4_6  and  C5_7
REMARK    4  A    between atoms: C9_13  and  O2_14
REMARK    5  A    between atoms: O2_14  and  C10_15
REMARK    6  A    between atoms: C10_15  and  C11_16
REMARK    7  A    between atoms: C15_20  and  C16_21
REMARK                            x       y       z     vdW  Elec       q    Type
REMARK                         _______ _______ _______ _____ _____    ______ ____
ROOT
ATOM      1  C5  T13     1      96.855 118.830 144.950  0.00  0.00    +0.243 A 
ATOM      2  N2  T13     1      98.178 119.176 144.709  0.00  0.00    -0.122 NA
ATOM      3  N3  T13     1      98.327 119.409 143.423  0.00  0.00    -0.127 NA
ATOM      4  C6  T13     1      97.099 119.203 142.901  0.00  0.00    +0.182 A 
ATOM      5  C7  T13     1      96.731 119.326 141.551  0.00  0.00    +0.010 A 
ATOM      6  C8  T13     1      95.396 119.070 141.190  0.00  0.00    +0.026 A 
ATOM      7  C9  T13     1      94.458 118.699 142.180  0.00  0.00    +0.237 A 
ATOM      8  N5  T13     1      94.831 118.586 143.478  0.00  0.00    -0.125 NA
ATOM      9  N6  T13     1      96.128 118.841 143.785  0.00  0.00    -0.185 N 
ATOM     10  C17 T13     1      95.120 119.237 139.697  0.00  0.00    +0.025 C 
ATOM     11  C18 T13     1      96.085 118.273 138.948  0.00  0.00    +0.009 C 
ATOM     12  C19 T13     1      97.568 118.556 139.353  0.00  0.00    +0.009 C 
ATOM     13  C20 T13     1      97.638 119.717 140.387  0.00  0.00    +0.023 C 
ATOM     14  C21 T13     1      97.003 120.976 139.727  0.00  0.00    +0.009 C 
ATOM     15  C22 T13     1      95.520 120.693 139.321  0.00  0.00    +0.009 C 
ENDROOT
BRANCH   1  19
ATOM     16  C3  T13     1      96.111 117.842 148.139  0.00  0.00    +0.172 A 
ATOM     17  N1  T13     1      94.963 118.569 147.908  0.00  0.00    -0.061 NA
ATOM     18  O1  T13     1      95.200 119.009 146.608  0.00  0.00    -0.329 OA
ATOM     19  C4  T13     1      96.398 118.531 146.208  0.00  0.00    +0.298 A 
ATOM     20  N7  T13     1      96.981 117.806 147.138  0.00  0.00    -0.189 NA
BRANCH  16  22
ATOM     21  C1  T13     1      97.445 117.818 150.285  0.00  0.00    +0.012 C 
ATOM     22  C2  T13     1      96.343 117.136 149.448  0.00  0.00    +0.076 C 
ENDBRANCH  16  22
ENDBRANCH   1  19
BRANCH   7  23
ATOM     23  O2  T13     1      93.156 118.453 141.798  0.00  0.00    -0.469 OA
BRANCH  23  24
ATOM     24  C10 T13     1      92.158 119.494 141.781  0.00  0.00    +0.286 C 
BRANCH  24  25
ATOM     25  C11 T13     1      90.828 119.005 142.345  0.00  0.00    +0.079 A 
ATOM     26  C12 T13     1      89.976 119.825 143.115  0.00  0.00    +0.027 A 
ATOM     27  C13 T13     1      88.768 119.291 143.593  0.00  0.00    +0.004 A 
ATOM     28  C14 T13     1      88.453 117.958 143.288  0.00  0.00    +0.023 A 
ATOM     29  C15 T13     1      89.360 117.208 142.516  0.00  0.00    +0.039 A 
ATOM     30  C16 T13     1      89.070 115.762 142.149  0.00  0.00    +0.065 C 
ATOM     31  N4  T13     1      90.518 117.723 142.055  0.00  0.00    -0.253 NA
ENDBRANCH  24  25
ENDBRANCH  23  24
ENDBRANCH   7  23
TORSDOF 5
ENDMDL
MODEL 7
REMARK VINA RESULT:    -7.698      2.513      7.020
REMARK INTER + INTRA:         -11.410
REMARK INTER:                 -10.499
REMARK INTRA:                  -0.910
REMARK UNBOUND:                -1.461
REMARK  Name = ligands_pdb/TRN_CHEMBL332893.pdb
REMARK  7 active torsions:
REMARK  status: ('A' for Active; 'I' for Inactive)
REMARK    1  A    between atoms: C1_1  and  C2_2
REMARK    2  A    between atoms: C2_2  and  C3_3
REMARK    3  A    between atoms: C4_6  and  C5_7
REMARK    4  A    between atoms: C9_13  and  O2_14
REMARK    5  A    between atoms: O2_14  and  C10_15
REMARK    6  A    between atoms: C10_15  and  C11_16
REMARK    7  A    between atoms: C15_20  and  C16_21
REMARK                            x       y       z     vdW  Elec       q    Type
REMARK                         _______ _______ _______ _____ _____    ______ ____
ROOT
ATOM      1  C5  T13     1      93.666 120.965 139.096  0.00  0.00    +0.243 A 
ATOM      2  N2  T13     1      93.652 121.513 137.820  0.00  0.00    -0.122 NA
ATOM      3  N3  T13     1      94.855 121.402 137.298  0.00  0.00    -0.127 NA
ATOM      4  C6  T13     1      95.581 120.791 138.259  0.00  0.00    +0.182 A 
ATOM      5  C7  T13     1      96.940 120.444 138.188  0.00  0.00    +0.010 A 
ATOM      6  C8  T13     1      97.533 119.809 139.295  0.00  0.00    +0.026 A 
ATOM      7  C9  T13     1      96.760 119.533 140.445  0.00  0.00    +0.237 A 
ATOM      8  N5  T13     1      95.449 119.875 140.495  0.00  0.00    -0.125 NA
ATOM      9  N6  T13     1      94.916 120.486 139.408  0.00  0.00    -0.185 N 
ATOM     10  C17 T13     1      99.012 119.483 139.097  0.00  0.00    +0.025 C 
ATOM     11  C18 T13     1      99.734 120.825 138.785  0.00  0.00    +0.009 C 
ATOM     12  C19 T13     1      99.072 121.531 137.557  0.00  0.00    +0.009 C 
ATOM     13  C20 T13     1      97.886 120.682 137.014  0.00  0.00    +0.023 C 
ATOM     14  C21 T13     1      98.451 119.291 136.603  0.00  0.00    +0.009 C 
ATOM     15  C22 T13     1      99.114 118.585 137.831  0.00  0.00    +0.009 C 
ENDROOT
BRANCH   1  19
ATOM     16  C3  T13     1      91.139 121.103 141.397  0.00  0.00    +0.172 A 
ATOM     17  N1  T13     1      90.431 120.477 140.394  0.00  0.00    -0.061 NA
ATOM     18  O1  T13     1      91.411 120.387 139.409  0.00  0.00    -0.329 OA
ATOM     19  C4  T13     1      92.548 120.936 139.888  0.00  0.00    +0.298 A 
ATOM     20  N7  T13     1      92.405 121.386 141.116  0.00  0.00    -0.189 NA
BRANCH  16  22
ATOM     21  C1  T13     1      90.755 120.333 143.773  0.00  0.00    +0.012 C 
ATOM     22  C2  T13     1      90.503 121.432 142.721  0.00  0.00    +0.076 C 
ENDBRANCH  16  22
ENDBRANCH   1  19
BRANCH   7  23
ATOM     23  O2  T13     1      97.365 118.910 141.516  0.00  0.00    -0.469 OA
BRANCH  23  24
ATOM     24  C10 T13     1      97.480 119.551 142.803  0.00  0.00    +0.286 C 
BRANCH  24  25
ATOM     25  C11 T13     1      96.618 118.858 143.854  0.00  0.00    +0.079 A 
ATOM     26  C12 T13     1      95.439 118.154 143.532  0.00  0.00    +0.027 A 
ATOM     27  C13 T13     1      94.706 117.546 144.565  0.00  0.00    +0.004 A 
ATOM     28  C14 T13     1      95.175 117.665 145.882  0.00  0.00    +0.023 A 
ATOM     29  C15 T13     1      96.358 118.388 146.118  0.00  0.00    +0.039 A 
ATOM     30  C16 T13     1      96.916 118.544 147.522  0.00  0.00    +0.065 C 
ATOM     31  N4  T13     1      97.062 118.969 145.124  0.00  0.00    -0.253 NA
ENDBRANCH  24  25
ENDBRANCH  23  24
ENDBRANCH   7  23
TORSDOF 5
ENDMDL
MODEL 8
REMARK VINA RESULT:    -7.650      2.964      7.275
REMARK INTER + INTRA:         -11.348
REMARK INTER:                  -9.953
REMARK INTRA:                  -1.395
REMARK UNBOUND:                -1.461
REMARK  Name = ligands_pdb/TRN_CHEMBL332893.pdb
REMARK  7 active torsions:
REMARK  status: ('A' for Active; 'I' for Inactive)
REMARK    1  A    between atoms: C1_1  and  C2_2
REMARK    2  A    between atoms: C2_2  and  C3_3
REMARK    3  A    between atoms: C4_6  and  C5_7
REMARK    4  A    between atoms: C9_13  and  O2_14
REMARK    5  A    between atoms: O2_14  and  C10_15
REMARK    6  A    between atoms: C10_15  and  C11_16
REMARK    7  A    between atoms: C15_20  and  C16_21
REMARK                            x       y       z     vdW  Elec       q    Type
REMARK                         _______ _______ _______ _____ _____    ______ ____
ROOT
ATOM      1  C5  T13     1      97.673 119.302 140.858  0.00  0.00    +0.243 A 
ATOM      2  N2  T13     1      98.559 119.372 141.926  0.00  0.00    -0.122 NA
ATOM      3  N3  T13     1      97.893 119.175 143.043  0.00  0.00    -0.127 NA
ATOM      4  C6  T13     1      96.617 118.987 142.643  0.00  0.00    +0.182 A 
ATOM      5  C7  T13     1      95.509 118.735 143.467  0.00  0.00    +0.010 A 
ATOM      6  C8  T13     1      94.247 118.566 142.869  0.00  0.00    +0.026 A 
ATOM      7  C9  T13     1      94.117 118.651 141.465  0.00  0.00    +0.237 A 
ATOM      8  N5  T13     1      95.198 118.893 140.684  0.00  0.00    -0.125 NA
ATOM      9  N6  T13     1      96.396 119.051 141.300  0.00  0.00    -0.185 N 
ATOM     10  C17 T13     1      93.123 118.299 143.869  0.00  0.00    +0.025 C 
ATOM     11  C18 T13     1      93.103 119.498 144.860  0.00  0.00    +0.009 C 
ATOM     12  C19 T13     1      94.507 119.687 145.521  0.00  0.00    +0.009 C 
ATOM     13  C20 T13     1      95.508 118.620 144.990  0.00  0.00    +0.023 C 
ATOM     14  C21 T13     1      94.928 117.217 145.334  0.00  0.00    +0.009 C 
ATOM     15  C22 T13     1      93.523 117.028 144.672  0.00  0.00    +0.009 C 
ENDROOT
BRANCH   1  19
ATOM     16  C3  T13     1      98.401 120.083 137.609  0.00  0.00    +0.172 A 
ATOM     17  N1  T13     1      99.234 118.990 137.718  0.00  0.00    -0.061 NA
ATOM     18  O1  T13     1      98.986 118.614 139.037  0.00  0.00    -0.329 OA
ATOM     19  C4  T13     1      98.082 119.469 139.561  0.00  0.00    +0.298 A 
ATOM     20  N7  T13     1      97.705 120.387 138.697  0.00  0.00    -0.189 NA
BRANCH  16  22
ATOM     21  C1  T13     1      98.833 122.306 136.486  0.00  0.00    +0.012 C 
ATOM     22  C2  T13     1      98.299 120.867 136.328  0.00  0.00    +0.076 C 
ENDBRANCH  16  22
ENDBRANCH   1  19
BRANCH   7  23
ATOM     23  O2  T13     1      92.869 118.482 140.904  0.00  0.00    -0.469 OA
BRANCH  23  24
ATOM     24  C10 T13     1      92.170 119.567 140.260  0.00  0.00    +0.286 C 
BRANCH  24  25
ATOM     25  C11 T13     1      91.462 120.459 141.274  0.00  0.00    +0.079 A 
ATOM     26  C12 T13     1      90.377 120.014 142.058  0.00  0.00    +0.027 A 
ATOM     27  C13 T13     1      89.785 120.905 142.968  0.00  0.00    +0.004 A 
ATOM     28  C14 T13     1      90.295 122.209 143.062  0.00  0.00    +0.023 A 
ATOM     29  C15 T13     1      91.378 122.574 142.241  0.00  0.00    +0.039 A 
ATOM     30  C16 T13     1      91.976 123.969 142.304  0.00  0.00    +0.065 C 
ATOM     31  N4  T13     1      91.947 121.716 141.370  0.00  0.00    -0.253 NA
ENDBRANCH  24  25
ENDBRANCH  23  24
ENDBRANCH   7  23
TORSDOF 5
ENDMDL
MODEL 9
REMARK VINA RESULT:    -7.607      4.764      7.119
REMARK INTER + INTRA:         -11.292
REMARK INTER:                 -10.578
REMARK INTRA:                  -0.714
REMARK UNBOUND:                -1.461
REMARK  Name = ligands_pdb/TRN_CHEMBL332893.pdb
REMARK  7 active torsions:
REMARK  status: ('A' for Active; 'I' for Inactive)
REMARK    1  A    between atoms: C1_1  and  C2_2
REMARK    2  A    between atoms: C2_2  and  C3_3
REMARK    3  A    between atoms: C4_6  and  C5_7
REMARK    4  A    between atoms: C9_13  and  O2_14
REMARK    5  A    between atoms: O2_14  and  C10_15
REMARK    6  A    between atoms: C10_15  and  C11_16
REMARK    7  A    between atoms: C15_20  and  C16_21
REMARK                            x       y       z     vdW  Elec       q    Type
REMARK                         _______ _______ _______ _____ _____    ______ ____
ROOT
ATOM      1  C5  T13     1      93.658 118.421 139.689  0.00  0.00    +0.243 A 
ATOM      2  N2  T13     1      94.343 117.250 139.984  0.00  0.00    -0.122 NA
ATOM      3  N3  T13     1      95.625 117.440 139.753  0.00  0.00    -0.127 NA
ATOM      4  C6  T13     1      95.702 118.717 139.324  0.00  0.00    +0.182 A 
ATOM      5  C7  T13     1      96.866 119.406 138.946  0.00  0.00    +0.010 A 
ATOM      6  C8  T13     1      96.752 120.743 138.522  0.00  0.00    +0.026 A 
ATOM      7  C9  T13     1      95.483 121.363 138.484  0.00  0.00    +0.237 A 
ATOM      8  N5  T13     1      94.370 120.683 138.854  0.00  0.00    -0.125 NA
ATOM      9  N6  T13     1      94.523 119.397 139.256  0.00  0.00    -0.185 N 
ATOM     10  C17 T13     1      98.085 121.382 138.138  0.00  0.00    +0.025 C 
ATOM     11  C18 T13     1      98.703 120.501 137.014  0.00  0.00    +0.009 C 
ATOM     12  C19 T13     1      98.825 119.015 137.486  0.00  0.00    +0.009 C 
ATOM     13  C20 T13     1      98.291 118.859 138.939  0.00  0.00    +0.023 C 
ATOM     14  C21 T13     1      99.135 119.793 139.855  0.00  0.00    +0.009 C 
ATOM     15  C22 T13     1      99.013 121.279 139.383  0.00  0.00    +0.009 C 
ENDROOT
BRANCH   1  19
ATOM     16  C3  T13     1      90.255 118.750 139.589  0.00  0.00    +0.172 A 
ATOM     17  N1  T13     1      90.372 118.547 140.947  0.00  0.00    -0.061 NA
ATOM     18  O1  T13     1      91.753 118.402 141.063  0.00  0.00    -0.329 OA
ATOM     19  C4  T13     1      92.299 118.525 139.834  0.00  0.00    +0.298 A 
ATOM     20  N7  T13     1      91.392 118.741 138.905  0.00  0.00    -0.189 NA
BRANCH  16  22
ATOM     21  C1  T13     1      88.610 117.910 137.864  0.00  0.00    +0.012 C 
ATOM     22  C2  T13     1      88.914 118.971 138.941  0.00  0.00    +0.076 C 
ENDBRANCH  16  22
ENDBRANCH   1  19
BRANCH   7  23
ATOM     23  O2  T13     1      95.399 122.673 138.064  0.00  0.00    -0.469 OA
BRANCH  23  24
ATOM     24  C10 T13     1      95.335 123.022 136.666  0.00  0.00    +0.286 C 
BRANCH  24  25
ATOM     25  C11 T13     1      95.386 124.532 136.461  0.00  0.00    +0.079 A 
ATOM     26  C12 T13     1      95.969 125.413 137.397  0.00  0.00    +0.027 A 
ATOM     27  C13 T13     1      95.971 126.791 137.125  0.00  0.00    +0.004 A 
ATOM     28  C14 T13     1      95.390 127.242 135.930  0.00  0.00    +0.023 A 
ATOM     29  C15 T13     1      94.827 126.298 135.052  0.00  0.00    +0.039 A 
ATOM     30  C16 T13     1      94.190 126.728 133.741  0.00  0.00    +0.065 C 
ATOM     31  N4  T13     1      94.828 124.975 135.313  0.00  0.00    -0.253 NA
ENDBRANCH  24  25
ENDBRANCH  23  24
ENDBRANCH   7  23
TORSDOF 5
ENDMDL
MODEL 10
REMARK VINA RESULT:    -7.584      3.912      9.064
REMARK INTER + INTRA:         -11.262
REMARK INTER:                  -9.918
REMARK INTRA:                  -1.344
REMARK UNBOUND:                -1.461
REMARK  Name = ligands_pdb/TRN_CHEMBL332893.pdb
REMARK  7 active torsions:
REMARK  status: ('A' for Active; 'I' for Inactive)
REMARK    1  A    between atoms: C1_1  and  C2_2
REMARK    2  A    between atoms: C2_2  and  C3_3
REMARK    3  A    between atoms: C4_6  and  C5_7
REMARK    4  A    between atoms: C9_13  and  O2_14
REMARK    5  A    between atoms: O2_14  and  C10_15
REMARK    6  A    between atoms: C10_15  and  C11_16
REMARK    7  A    between atoms: C15_20  and  C16_21
REMARK                            x       y       z     vdW  Elec       q    Type
REMARK                         _______ _______ _______ _____ _____    ______ ____
ROOT
ATOM      1  C5  T13     1      96.574 123.989 137.010  0.00  0.00    +0.243 A 
ATOM      2  N2  T13     1      97.956 124.031 137.145  0.00  0.00    -0.122 NA
ATOM      3  N3  T13     1      98.342 123.002 137.869  0.00  0.00    -0.127 NA
ATOM      4  C6  T13     1      97.196 122.352 138.164  0.00  0.00    +0.182 A 
ATOM      5  C7  T13     1      97.070 121.178 138.924  0.00  0.00    +0.010 A 
ATOM      6  C8  T13     1      95.786 120.641 139.129  0.00  0.00    +0.026 A 
ATOM      7  C9  T13     1      94.657 121.283 138.574  0.00  0.00    +0.237 A 
ATOM      8  N5  T13     1      94.798 122.416 137.842  0.00  0.00    -0.125 NA
ATOM      9  N6  T13     1      96.052 122.901 137.668  0.00  0.00    -0.185 N 
ATOM     10  C17 T13     1      95.781 119.365 139.970  0.00  0.00    +0.025 C 
ATOM     11  C18 T13     1      96.452 119.716 141.330  0.00  0.00    +0.009 C 
ATOM     12  C19 T13     1      97.877 120.316 141.100  0.00  0.00    +0.009 C 
ATOM     13  C20 T13     1      98.200 120.386 139.579  0.00  0.00    +0.023 C 
ATOM     14  C21 T13     1      98.120 118.938 139.013  0.00  0.00    +0.009 C 
ATOM     15  C22 T13     1      96.695 118.338 139.243  0.00  0.00    +0.009 C 
ENDROOT
BRANCH   1  19
ATOM     16  C3  T13     1      95.135 126.667 135.444  0.00  0.00    +0.172 A 
ATOM     17  N1  T13     1      94.329 125.691 134.899  0.00  0.00    -0.061 NA
ATOM     18  O1  T13     1      94.866 124.555 135.501  0.00  0.00    -0.329 OA
ATOM     19  C4  T13     1      95.883 124.938 136.302  0.00  0.00    +0.298 A 
ATOM     20  N7  T13     1      96.069 126.240 136.284  0.00  0.00    -0.189 NA
BRANCH  16  22
ATOM     21  C1  T13     1      95.913 129.030 135.888  0.00  0.00    +0.012 C 
ATOM     22  C2  T13     1      94.949 128.121 135.100  0.00  0.00    +0.076 C 
ENDBRANCH  16  22
ENDBRANCH   1  19
BRANCH   7  23
ATOM     23  O2  T13     1      93.411 120.737 138.791  0.00  0.00    -0.469 OA
BRANCH  23  24
ATOM     24  C10 T13     1      92.484 121.306 139.738  0.00  0.00    +0.286 C 
BRANCH  24  25
ATOM     25  C11 T13     1      92.908 121.026 141.176  0.00  0.00    +0.079 A 
ATOM     26  C12 T13     1      92.584 119.831 141.851  0.00  0.00    +0.027 A 
ATOM     27  C13 T13     1      93.018 119.658 143.176  0.00  0.00    +0.004 A 
ATOM     28  C14 T13     1      93.758 120.686 143.781  0.00  0.00    +0.023 A 
ATOM     29  C15 T13     1      94.036 121.848 143.039  0.00  0.00    +0.039 A 
ATOM     30  C16 T13     1      94.838 122.990 143.640  0.00  0.00    +0.065 C 
ATOM     31  N4  T13     1      93.621 122.011 141.766  0.00  0.00    -0.253 NA
ENDBRANCH  24  25
ENDBRANCH  23  24
ENDBRANCH   7  23
TORSDOF 5
ENDMDL
