MODEL 1
REMARK VINA RESULT:    -9.831      0.000      0.000
REMARK INTER + INTRA:         -13.960
REMARK INTER:                 -12.991
REMARK INTRA:                  -0.969
REMARK UNBOUND:                -0.969
REMARK  Name = ligands_pdb/TRN_CHEMBL179737.pdb
REMARK  6 active torsions:
REMARK  status: ('A' for Active; 'I' for Inactive)
REMARK    1  A    between atoms: O1_1  and  C1_2
REMARK    2  A    between atoms: C1_2  and  C2_3
REMARK    3  A    between atoms: C5_6  and  C6_7
REMARK    4  A    between atoms: C6_7  and  O2_8
REMARK    5  A    between atoms: O2_8  and  C7_9
REMARK    6  A    between atoms: C8_12  and  C9_13
REMARK                            x       y       z     vdW  Elec       q    Type
REMARK                         _______ _______ _______ _____ _____    ______ ____
ROOT
ATOM      1  C7  T10     1      96.118 119.039 143.311  0.00  0.00    +0.237 A 
ATOM      2  N1  T10     1      96.224 118.735 144.630  0.00  0.00    -0.125 NA
ATOM      3  N2  T10     1      95.102 118.796 145.390  0.00  0.00    -0.189 N 
ATOM      4  C8  T10     1      94.865 118.605 146.735  0.00  0.00    +0.185 A 
ATOM      5  N3  T10     1      93.575 118.879 146.964  0.00  0.00    -0.127 NA
ATOM      6  N4  T10     1      93.001 119.204 145.880  0.00  0.00    -0.127 NA
ATOM      7  C15 T10     1      93.881 119.170 144.928  0.00  0.00    +0.182 A 
ATOM      8  C16 T10     1      93.737 119.501 143.575  0.00  0.00    +0.010 A 
ATOM      9  C17 T10     1      94.876 119.425 142.755  0.00  0.00    +0.026 A 
ATOM     10  C18 T10     1      94.610 119.810 141.300  0.00  0.00    +0.025 C 
ATOM     11  C19 T10     1      94.039 121.258 141.313  0.00  0.00    +0.009 C 
ATOM     12  C20 T10     1      92.778 121.344 142.233  0.00  0.00    +0.009 C 
ATOM     13  C21 T10     1      92.467 119.955 142.862  0.00  0.00    +0.023 C 
ATOM     14  C22 T10     1      92.225 118.953 141.696  0.00  0.00    +0.009 C 
ATOM     15  C23 T10     1      93.489 118.866 140.778  0.00  0.00    +0.009 C 
ENDROOT
BRANCH   4  16
ATOM     16  C9  T10     1      95.833 118.208 147.765  0.00  0.00    +0.021 A 
ATOM     17  C10 T10     1      96.195 119.121 148.778  0.00  0.00    +0.011 A 
ATOM     18  C11 T10     1      97.117 118.757 149.773  0.00  0.00    +0.001 A 
ATOM     19  C12 T10     1      97.684 117.474 149.772  0.00  0.00    +0.000 A 
ATOM     20  C13 T10     1      97.325 116.554 148.775  0.00  0.00    +0.001 A 
ATOM     21  C14 T10     1      96.404 116.919 147.780  0.00  0.00    +0.011 A 
ENDBRANCH   4  16
BRANCH   1  22
ATOM     22  O2  T10     1      97.221 118.987 142.487  0.00  0.00    -0.470 OA
BRANCH  22  23
ATOM     23  C6  T10     1      97.860 120.178 141.993  0.00  0.00    +0.266 C 
BRANCH  23  27
ATOM     24  C2  T10     1      98.328 119.824 137.690  0.00  0.00    -0.022 A 
ATOM     25  C3  T10     1      98.727 120.999 138.353  0.00  0.00    +0.006 A 
ATOM     26  C4  T10     1      98.576 121.113 139.746  0.00  0.00    +0.007 A 
ATOM     27  C5  T10     1      98.026 120.053 140.489  0.00  0.00    -0.010 A 
ATOM     28  C24 T10     1      97.626 118.880 139.826  0.00  0.00    +0.007 A 
ATOM     29  C25 T10     1      97.777 118.765 138.434  0.00  0.00    +0.006 A 
BRANCH  24  30
ATOM     30  C1  T10     1      98.491 119.702 136.184  0.00  0.00    +0.191 C 
BRANCH  30  31
ATOM     31  O1  T10     1      97.488 118.847 135.643  0.00  0.00    -0.390 OA
ATOM     32  H1  T10     1      97.330 118.130 136.282  0.00  0.00    +0.210 HD
ENDBRANCH  30  31
ENDBRANCH  24  30
ENDBRANCH  23  27
ENDBRANCH  22  23
ENDBRANCH   1  22
TORSDOF 6
ENDMDL
MODEL 2
REMARK VINA RESULT:    -9.671      1.298      1.849
REMARK INTER + INTRA:         -13.750
REMARK INTER:                 -12.033
REMARK INTRA:                  -1.716
REMARK UNBOUND:                -0.969
REMARK  Name = ligands_pdb/TRN_CHEMBL179737.pdb
REMARK  6 active torsions:
REMARK  status: ('A' for Active; 'I' for Inactive)
REMARK    1  A    between atoms: O1_1  and  C1_2
REMARK    2  A    between atoms: C1_2  and  C2_3
REMARK    3  A    between atoms: C5_6  and  C6_7
REMARK    4  A    between atoms: C6_7  and  O2_8
REMARK    5  A    between atoms: O2_8  and  C7_9
REMARK    6  A    between atoms: C8_12  and  C9_13
REMARK                            x       y       z     vdW  Elec       q    Type
REMARK                         _______ _______ _______ _____ _____    ______ ____
ROOT
ATOM      1  C7  T10     1      95.401 120.559 142.524  0.00  0.00    +0.237 A 
ATOM      2  N1  T10     1      95.485 119.963 143.740  0.00  0.00    -0.125 NA
ATOM      3  N2  T10     1      94.579 118.998 144.041  0.00  0.00    -0.189 N 
ATOM      4  C8  T10     1      94.350 118.243 145.171  0.00  0.00    +0.185 A 
ATOM      5  N3  T10     1      93.261 117.497 144.948  0.00  0.00    -0.127 NA
ATOM      6  N4  T10     1      92.816 117.717 143.781  0.00  0.00    -0.127 NA
ATOM      7  C15 T10     1      93.572 118.607 143.218  0.00  0.00    +0.182 A 
ATOM      8  C16 T10     1      93.450 119.208 141.959  0.00  0.00    +0.010 A 
ATOM      9  C17 T10     1      94.386 120.195 141.608  0.00  0.00    +0.026 A 
ATOM     10  C18 T10     1      94.160 120.788 140.217  0.00  0.00    +0.025 C 
ATOM     11  C19 T10     1      92.717 121.372 140.205  0.00  0.00    +0.009 C 
ATOM     12  C20 T10     1      91.676 120.277 140.606  0.00  0.00    +0.009 C 
ATOM     13  C21 T10     1      92.392 118.926 140.897  0.00  0.00    +0.023 C 
ATOM     14  C22 T10     1      93.154 118.509 139.606  0.00  0.00    +0.009 C 
ATOM     15  C23 T10     1      94.197 119.605 139.208  0.00  0.00    +0.009 C 
ENDROOT
BRANCH   4  16
ATOM     16  C9  T10     1      95.116 118.254 146.424  0.00  0.00    +0.021 A 
ATOM     17  C10 T10     1      95.956 117.167 146.743  0.00  0.00    +0.011 A 
ATOM     18  C11 T10     1      96.698 117.162 147.936  0.00  0.00    +0.001 A 
ATOM     19  C12 T10     1      96.614 118.247 148.821  0.00  0.00    +0.000 A 
ATOM     20  C13 T10     1      95.789 119.339 148.510  0.00  0.00    +0.001 A 
ATOM     21  C14 T10     1      95.046 119.342 147.318  0.00  0.00    +0.011 A 
ENDBRANCH   4  16
BRANCH   1  22
ATOM     22  O2  T10     1      96.298 121.540 142.158  0.00  0.00    -0.470 OA
BRANCH  22  23
ATOM     23  C6  T10     1      97.680 121.244 141.887  0.00  0.00    +0.266 C 
BRANCH  23  27
ATOM     24  C2  T10     1      98.059 120.091 137.718  0.00  0.00    -0.022 A 
ATOM     25  C3  T10     1      98.040 121.451 138.079  0.00  0.00    +0.006 A 
ATOM     26  C4  T10     1      97.918 121.823 139.429  0.00  0.00    +0.007 A 
ATOM     27  C5  T10     1      97.816 120.841 140.430  0.00  0.00    -0.010 A 
ATOM     28  C24 T10     1      97.833 119.483 140.069  0.00  0.00    +0.007 A 
ATOM     29  C25 T10     1      97.955 119.109 138.720  0.00  0.00    +0.006 A 
BRANCH  24  30
ATOM     30  C1  T10     1      98.190 119.688 136.258  0.00  0.00    +0.191 C 
BRANCH  30  31
ATOM     31  O1  T10     1      97.426 118.514 135.995  0.00  0.00    -0.390 OA
ATOM     32  H1  T10     1      97.822 117.781 136.499  0.00  0.00    +0.210 HD
ENDBRANCH  30  31
ENDBRANCH  24  30
ENDBRANCH  23  27
ENDBRANCH  22  23
ENDBRANCH   1  22
TORSDOF 6
ENDMDL
MODEL 3
REMARK VINA RESULT:    -8.766      4.779      9.305
REMARK INTER + INTRA:         -12.554
REMARK INTER:                 -10.754
REMARK INTRA:                  -1.800
REMARK UNBOUND:                -0.969
REMARK  Name = ligands_pdb/TRN_CHEMBL179737.pdb
REMARK  6 active torsions:
REMARK  status: ('A' for Active; 'I' for Inactive)
REMARK    1  A    between atoms: O1_1  and  C1_2
REMARK    2  A    between atoms: C1_2  and  C2_3
REMARK    3  A    between atoms: C5_6  and  C6_7
REMARK    4  A    between atoms: C6_7  and  O2_8
REMARK    5  A    between atoms: O2_8  and  C7_9
REMARK    6  A    between atoms: C8_12  and  C9_13
REMARK                            x       y       z     vdW  Elec       q    Type
REMARK                         _______ _______ _______ _____ _____    ______ ____
ROOT
ATOM      1  C7  T10     1      95.430 121.437 138.131  0.00  0.00    +0.237 A 
ATOM      2  N1  T10     1      95.279 122.761 137.873  0.00  0.00    -0.125 NA
ATOM      3  N2  T10     1      96.385 123.477 137.547  0.00  0.00    -0.189 N 
ATOM      4  C8  T10     1      96.595 124.813 137.279  0.00  0.00    +0.185 A 
ATOM      5  N3  T10     1      97.910 124.990 137.102  0.00  0.00    -0.127 NA
ATOM      6  N4  T10     1      98.518 123.882 137.221  0.00  0.00    -0.127 NA
ATOM      7  C15 T10     1      97.642 122.965 137.491  0.00  0.00    +0.182 A 
ATOM      8  C16 T10     1      97.836 121.605 137.762  0.00  0.00    +0.010 A 
ATOM      9  C17 T10     1      96.707 120.830 138.080  0.00  0.00    +0.026 A 
ATOM     10  C18 T10     1      97.030 119.363 138.362  0.00  0.00    +0.025 C 
ATOM     11  C19 T10     1      98.056 119.344 139.532  0.00  0.00    +0.009 C 
ATOM     12  C20 T10     1      99.307 120.214 139.183  0.00  0.00    +0.009 C 
ATOM     13  C21 T10     1      99.156 120.841 137.766  0.00  0.00    +0.023 C 
ATOM     14  C22 T10     1      99.000 119.674 136.749  0.00  0.00    +0.009 C 
ATOM     15  C23 T10     1      97.746 118.806 137.098  0.00  0.00    +0.009 C 
ENDROOT
BRANCH   4  16
ATOM     16  C9  T10     1      95.591 125.883 137.226  0.00  0.00    +0.021 A 
ATOM     17  C10 T10     1      95.618 126.920 138.181  0.00  0.00    +0.011 A 
ATOM     18  C11 T10     1      94.667 127.953 138.143  0.00  0.00    +0.001 A 
ATOM     19  C12 T10     1      93.681 127.965 137.145  0.00  0.00    +0.000 A 
ATOM     20  C13 T10     1      93.649 126.943 136.184  0.00  0.00    +0.001 A 
ATOM     21  C14 T10     1      94.600 125.910 136.223  0.00  0.00    +0.011 A 
ENDBRANCH   4  16
BRANCH   1  22
ATOM     22  O2  T10     1      94.343 120.656 138.459  0.00  0.00    -0.470 OA
BRANCH  22  23
ATOM     23  C6  T10     1      93.673 120.776 139.727  0.00  0.00    +0.266 C 
BRANCH  23  27
ATOM     24  C2  T10     1      96.340 119.375 142.856  0.00  0.00    -0.022 A 
ATOM     25  C3  T10     1      95.570 118.458 142.115  0.00  0.00    +0.006 A 
ATOM     26  C4  T10     1      94.708 118.912 141.103  0.00  0.00    +0.007 A 
ATOM     27  C5  T10     1      94.608 120.286 140.819  0.00  0.00    -0.010 A 
ATOM     28  C24 T10     1      95.376 121.202 141.560  0.00  0.00    +0.007 A 
ATOM     29  C25 T10     1      96.238 120.749 142.572  0.00  0.00    +0.006 A 
BRANCH  24  30
ATOM     30  C1  T10     1      97.271 118.884 143.952  0.00  0.00    +0.191 C 
BRANCH  30  31
ATOM     31  O1  T10     1      98.626 118.930 143.511  0.00  0.00    -0.390 OA
ATOM     32  H1  T10     1      99.086 118.156 143.879  0.00  0.00    +0.210 HD
ENDBRANCH  30  31
ENDBRANCH  24  30
ENDBRANCH  23  27
ENDBRANCH  22  23
ENDBRANCH   1  22
TORSDOF 6
ENDMDL
MODEL 4
REMARK VINA RESULT:    -8.318      2.727      7.850
REMARK INTER + INTRA:         -11.962
REMARK INTER:                 -11.411
REMARK INTRA:                  -0.551
REMARK UNBOUND:                -0.969
REMARK  Name = ligands_pdb/TRN_CHEMBL179737.pdb
REMARK  6 active torsions:
REMARK  status: ('A' for Active; 'I' for Inactive)
REMARK    1  A    between atoms: O1_1  and  C1_2
REMARK    2  A    between atoms: C1_2  and  C2_3
REMARK    3  A    between atoms: C5_6  and  C6_7
REMARK    4  A    between atoms: C6_7  and  O2_8
REMARK    5  A    between atoms: O2_8  and  C7_9
REMARK    6  A    between atoms: C8_12  and  C9_13
REMARK                            x       y       z     vdW  Elec       q    Type
REMARK                         _______ _______ _______ _____ _____    ______ ____
ROOT
ATOM      1  C7  T10     1      94.706 118.567 142.975  0.00  0.00    +0.237 A 
ATOM      2  N1  T10     1      95.631 118.738 141.996  0.00  0.00    -0.125 NA
ATOM      3  N2  T10     1      95.222 119.283 140.822  0.00  0.00    -0.189 N 
ATOM      4  C8  T10     1      95.867 119.545 139.632  0.00  0.00    +0.185 A 
ATOM      5  N3  T10     1      94.956 120.012 138.770  0.00  0.00    -0.127 NA
ATOM      6  N4  T10     1      93.819 120.074 139.330  0.00  0.00    -0.127 NA
ATOM      7  C15 T10     1      93.942 119.643 140.547  0.00  0.00    +0.182 A 
ATOM      8  C16 T10     1      92.960 119.470 141.530  0.00  0.00    +0.010 A 
ATOM      9  C17 T10     1      93.355 118.930 142.766  0.00  0.00    +0.026 A 
ATOM     10  C18 T10     1      92.208 118.781 143.765  0.00  0.00    +0.025 C 
ATOM     11  C19 T10     1      91.136 117.877 143.089  0.00  0.00    +0.009 C 
ATOM     12  C20 T10     1      90.703 118.473 141.710  0.00  0.00    +0.009 C 
ATOM     13  C21 T10     1      91.473 119.795 141.422  0.00  0.00    +0.023 C 
ATOM     14  C22 T10     1      91.147 120.790 142.573  0.00  0.00    +0.009 C 
ATOM     15  C23 T10     1      91.583 120.193 143.953  0.00  0.00    +0.009 C 
ENDROOT
BRANCH   4  16
ATOM     16  C9  T10     1      97.285 119.330 139.318  0.00  0.00    +0.021 A 
ATOM     17  C10 T10     1      97.674 119.025 137.997  0.00  0.00    +0.011 A 
ATOM     18  C11 T10     1      99.026 118.819 137.677  0.00  0.00    +0.001 A 
ATOM     19  C12 T10     1     100.007 118.923 138.674  0.00  0.00    +0.000 A 
ATOM     20  C13 T10     1      99.635 119.236 139.990  0.00  0.00    +0.001 A 
ATOM     21  C14 T10     1      98.282 119.440 140.309  0.00  0.00    +0.011 A 
ENDBRANCH   4  16
BRANCH   1  22
ATOM     22  O2  T10     1      95.063 118.027 144.192  0.00  0.00    -0.470 OA
BRANCH  22  23
ATOM     23  C6  T10     1      95.488 118.848 145.294  0.00  0.00    +0.266 C 
BRANCH  23  27
ATOM     24  C2  T10     1      96.739 116.263 148.551  0.00  0.00    -0.022 A 
ATOM     25  C3  T10     1      97.175 117.600 148.499  0.00  0.00    +0.006 A 
ATOM     26  C4  T10     1      96.770 118.436 147.445  0.00  0.00    +0.007 A 
ATOM     27  C5  T10     1      95.923 117.945 146.435  0.00  0.00    -0.010 A 
ATOM     28  C24 T10     1      95.489 116.609 146.487  0.00  0.00    +0.007 A 
ATOM     29  C25 T10     1      95.894 115.772 147.540  0.00  0.00    +0.006 A 
BRANCH  24  30
ATOM     30  C1  T10     1      97.179 115.359 149.691  0.00  0.00    +0.191 C 
BRANCH  30  31
ATOM     31  O1  T10     1      97.277 116.100 150.905  0.00  0.00    -0.390 OA
ATOM     32  H1  T10     1      96.685 116.869 150.834  0.00  0.00    +0.210 HD
ENDBRANCH  30  31
ENDBRANCH  24  30
ENDBRANCH  23  27
ENDBRANCH  22  23
ENDBRANCH   1  22
TORSDOF 6
ENDMDL
MODEL 5
REMARK VINA RESULT:    -8.281      2.958      7.812
REMARK INTER + INTRA:         -11.912
REMARK INTER:                 -10.560
REMARK INTRA:                  -1.353
REMARK UNBOUND:                -0.969
REMARK  Name = ligands_pdb/TRN_CHEMBL179737.pdb
REMARK  6 active torsions:
REMARK  status: ('A' for Active; 'I' for Inactive)
REMARK    1  A    between atoms: O1_1  and  C1_2
REMARK    2  A    between atoms: C1_2  and  C2_3
REMARK    3  A    between atoms: C5_6  and  C6_7
REMARK    4  A    between atoms: C6_7  and  O2_8
REMARK    5  A    between atoms: O2_8  and  C7_9
REMARK    6  A    between atoms: C8_12  and  C9_13
REMARK                            x       y       z     vdW  Elec       q    Type
REMARK                         _______ _______ _______ _____ _____    ______ ____
ROOT
ATOM      1  C7  T10     1      94.044 118.674 141.777  0.00  0.00    +0.237 A 
ATOM      2  N1  T10     1      95.101 118.966 140.976  0.00  0.00    -0.125 NA
ATOM      3  N2  T10     1      96.332 119.025 141.544  0.00  0.00    -0.189 N 
ATOM      4  C8  T10     1      97.581 119.335 141.049  0.00  0.00    +0.185 A 
ATOM      5  N3  T10     1      98.440 119.324 142.076  0.00  0.00    -0.127 NA
ATOM      6  N4  T10     1      97.831 119.021 143.147  0.00  0.00    -0.127 NA
ATOM      7  C15 T10     1      96.578 118.843 142.867  0.00  0.00    +0.182 A 
ATOM      8  C16 T10     1      95.510 118.550 143.724  0.00  0.00    +0.010 A 
ATOM      9  C17 T10     1      94.224 118.458 143.163  0.00  0.00    +0.026 A 
ATOM     10  C18 T10     1      93.132 118.140 144.184  0.00  0.00    +0.025 C 
ATOM     11  C19 T10     1      93.181 119.262 145.262  0.00  0.00    +0.009 C 
ATOM     12  C20 T10     1      94.614 119.371 145.878  0.00  0.00    +0.009 C 
ATOM     13  C21 T10     1      95.566 118.323 145.231  0.00  0.00    +0.023 C 
ATOM     14  C22 T10     1      94.964 116.913 145.494  0.00  0.00    +0.009 C 
ATOM     15  C23 T10     1      93.531 116.805 144.875  0.00  0.00    +0.009 C 
ENDROOT
BRANCH   4  16
ATOM     16  C9  T10     1      97.938 119.660 139.662  0.00  0.00    +0.021 A 
ATOM     17  C10 T10     1      98.728 120.795 139.387  0.00  0.00    +0.011 A 
ATOM     18  C11 T10     1      99.082 121.119 138.067  0.00  0.00    +0.001 A 
ATOM     19  C12 T10     1      98.655 120.307 137.006  0.00  0.00    +0.000 A 
ATOM     20  C13 T10     1      97.877 119.169 137.267  0.00  0.00    +0.001 A 
ATOM     21  C14 T10     1      97.523 118.847 138.587  0.00  0.00    +0.011 A 
ENDBRANCH   4  16
BRANCH   1  22
ATOM     22  O2  T10     1      92.770 118.591 141.257  0.00  0.00    -0.470 OA
BRANCH  22  23
ATOM     23  C6  T10     1      92.126 119.718 140.636  0.00  0.00    +0.266 C 
BRANCH  23  27
ATOM     24  C2  T10     1      89.455 121.554 143.526  0.00  0.00    -0.022 A 
ATOM     25  C3  T10     1      90.378 122.341 142.813  0.00  0.00    +0.006 A 
ATOM     26  C4  T10     1      91.242 121.747 141.878  0.00  0.00    +0.007 A 
ATOM     27  C5  T10     1      91.190 120.361 141.644  0.00  0.00    -0.010 A 
ATOM     28  C24 T10     1      90.269 119.574 142.358  0.00  0.00    +0.007 A 
ATOM     29  C25 T10     1      89.405 120.168 143.293  0.00  0.00    +0.006 A 
BRANCH  24  30
ATOM     30  C1  T10     1      88.522 122.197 144.539  0.00  0.00    +0.191 C 
BRANCH  30  31
ATOM     31  O1  T10     1      88.721 123.608 144.573  0.00  0.00    -0.390 OA
ATOM     32  H1  T10     1      87.949 124.008 145.012  0.00  0.00    +0.210 HD
ENDBRANCH  30  31
ENDBRANCH  24  30
ENDBRANCH  23  27
ENDBRANCH  22  23
ENDBRANCH   1  22
TORSDOF 6
ENDMDL
MODEL 6
REMARK VINA RESULT:    -8.188      4.536      9.367
REMARK INTER + INTRA:         -11.790
REMARK INTER:                  -9.995
REMARK INTRA:                  -1.795
REMARK UNBOUND:                -0.969
REMARK  Name = ligands_pdb/TRN_CHEMBL179737.pdb
REMARK  6 active torsions:
REMARK  status: ('A' for Active; 'I' for Inactive)
REMARK    1  A    between atoms: O1_1  and  C1_2
REMARK    2  A    between atoms: C1_2  and  C2_3
REMARK    3  A    between atoms: C5_6  and  C6_7
REMARK    4  A    between atoms: C6_7  and  O2_8
REMARK    5  A    between atoms: O2_8  and  C7_9
REMARK    6  A    between atoms: C8_12  and  C9_13
REMARK                            x       y       z     vdW  Elec       q    Type
REMARK                         _______ _______ _______ _____ _____    ______ ____
ROOT
ATOM      1  C7  T10     1      94.783 121.367 139.002  0.00  0.00    +0.237 A 
ATOM      2  N1  T10     1      94.954 122.518 138.303  0.00  0.00    -0.125 NA
ATOM      3  N2  T10     1      96.218 122.871 137.956  0.00  0.00    -0.189 N 
ATOM      4  C8  T10     1      96.743 123.967 137.307  0.00  0.00    +0.185 A 
ATOM      5  N3  T10     1      98.076 123.842 137.310  0.00  0.00    -0.127 NA
ATOM      6  N4  T10     1      98.409 122.762 137.887  0.00  0.00    -0.127 NA
ATOM      7  C15 T10     1      97.330 122.165 138.287  0.00  0.00    +0.182 A 
ATOM      8  C16 T10     1      97.191 120.978 139.017  0.00  0.00    +0.010 A 
ATOM      9  C17 T10     1      95.893 120.572 139.371  0.00  0.00    +0.026 A 
ATOM     10  C18 T10     1      95.855 119.268 140.168  0.00  0.00    +0.025 C 
ATOM     11  C19 T10     1      96.726 119.489 141.439  0.00  0.00    +0.009 C 
ATOM     12  C20 T10     1      98.167 119.950 141.044  0.00  0.00    +0.009 C 
ATOM     13  C21 T10     1      98.303 120.050 139.497  0.00  0.00    +0.023 C 
ATOM     14  C22 T10     1      97.999 118.643 138.906  0.00  0.00    +0.009 C 
ATOM     15  C23 T10     1      96.555 118.184 139.299  0.00  0.00    +0.009 C 
ENDROOT
BRANCH   4  16
ATOM     16  C9  T10     1      96.010 125.104 136.736  0.00  0.00    +0.021 A 
ATOM     17  C10 T10     1      96.024 126.351 137.394  0.00  0.00    +0.011 A 
ATOM     18  C11 T10     1      95.330 127.450 136.860  0.00  0.00    +0.001 A 
ATOM     19  C12 T10     1      94.620 127.317 135.657  0.00  0.00    +0.000 A 
ATOM     20  C13 T10     1      94.607 126.083 134.988  0.00  0.00    +0.001 A 
ATOM     21  C14 T10     1      95.300 124.985 135.523  0.00  0.00    +0.011 A 
ENDBRANCH   4  16
BRANCH   1  22
ATOM     22  O2  T10     1      93.522 120.951 139.374  0.00  0.00    -0.470 OA
BRANCH  22  23
ATOM     23  C6  T10     1      92.787 121.602 140.426  0.00  0.00    +0.266 C 
BRANCH  23  27
ATOM     24  C2  T10     1      94.011 119.922 144.239  0.00  0.00    -0.022 A 
ATOM     25  C3  T10     1      93.179 119.188 143.374  0.00  0.00    +0.006 A 
ATOM     26  C4  T10     1      92.783 119.732 142.140  0.00  0.00    +0.007 A 
ATOM     27  C5  T10     1      93.217 121.013 141.758  0.00  0.00    -0.010 A 
ATOM     28  C24 T10     1      94.047 121.748 142.623  0.00  0.00    +0.007 A 
ATOM     29  C25 T10     1      94.444 121.205 143.856  0.00  0.00    +0.006 A 
BRANCH  24  30
ATOM     30  C1  T10     1      94.438 119.334 145.574  0.00  0.00    +0.191 C 
BRANCH  30  31
ATOM     31  O1  T10     1      94.274 117.918 145.569  0.00  0.00    -0.390 OA
ATOM     32  H1  T10     1      95.137 117.517 145.775  0.00  0.00    +0.210 HD
ENDBRANCH  30  31
ENDBRANCH  24  30
ENDBRANCH  23  27
ENDBRANCH  22  23
ENDBRANCH   1  22
TORSDOF 6
ENDMDL
MODEL 7
REMARK VINA RESULT:    -8.102      3.576      7.094
REMARK INTER + INTRA:         -11.676
REMARK INTER:                 -10.239
REMARK INTRA:                  -1.437
REMARK UNBOUND:                -0.969
REMARK  Name = ligands_pdb/TRN_CHEMBL179737.pdb
REMARK  6 active torsions:
REMARK  status: ('A' for Active; 'I' for Inactive)
REMARK    1  A    between atoms: O1_1  and  C1_2
REMARK    2  A    between atoms: C1_2  and  C2_3
REMARK    3  A    between atoms: C5_6  and  C6_7
REMARK    4  A    between atoms: C6_7  and  O2_8
REMARK    5  A    between atoms: O2_8  and  C7_9
REMARK    6  A    between atoms: C8_12  and  C9_13
REMARK                            x       y       z     vdW  Elec       q    Type
REMARK                         _______ _______ _______ _____ _____    ______ ____
ROOT
ATOM      1  C7  T10     1      94.213 120.554 139.739  0.00  0.00    +0.237 A 
ATOM      2  N1  T10     1      92.995 120.157 139.291  0.00  0.00    -0.125 NA
ATOM      3  N2  T10     1      92.228 119.401 140.117  0.00  0.00    -0.189 N 
ATOM      4  C8  T10     1      90.996 118.801 139.968  0.00  0.00    +0.185 A 
ATOM      5  N3  T10     1      90.750 118.096 141.079  0.00  0.00    -0.127 NA
ATOM      6  N4  T10     1      91.711 118.225 141.897  0.00  0.00    -0.127 NA
ATOM      7  C15 T10     1      92.608 118.989 141.353  0.00  0.00    +0.182 A 
ATOM      8  C16 T10     1      93.862 119.372 141.844  0.00  0.00    +0.010 A 
ATOM      9  C17 T10     1      94.672 120.175 141.022  0.00  0.00    +0.026 A 
ATOM     10  C18 T10     1      96.019 120.532 141.650  0.00  0.00    +0.025 C 
ATOM     11  C19 T10     1      96.733 119.190 141.980  0.00  0.00    +0.009 C 
ATOM     12  C20 T10     1      95.828 118.292 142.886  0.00  0.00    +0.009 C 
ATOM     13  C21 T10     1      94.481 119.010 143.190  0.00  0.00    +0.023 C 
ATOM     14  C22 T10     1      94.812 120.351 143.906  0.00  0.00    +0.009 C 
ATOM     15  C23 T10     1      95.716 121.248 142.997  0.00  0.00    +0.009 C 
ENDROOT
BRANCH   4  16
ATOM     16  C9  T10     1      90.103 118.869 138.804  0.00  0.00    +0.021 A 
ATOM     17  C10 T10     1      90.149 119.988 137.947  0.00  0.00    +0.011 A 
ATOM     18  C11 T10     1      89.304 120.068 136.828  0.00  0.00    +0.001 A 
ATOM     19  C12 T10     1      88.407 119.027 136.548  0.00  0.00    +0.000 A 
ATOM     20  C13 T10     1      88.359 117.903 137.388  0.00  0.00    +0.001 A 
ATOM     21  C14 T10     1      89.203 117.825 138.508  0.00  0.00    +0.011 A 
ENDBRANCH   4  16
BRANCH   1  22
ATOM     22  O2  T10     1      95.034 121.331 138.949  0.00  0.00    -0.470 OA
BRANCH  22  23
ATOM     23  C6  T10     1      95.700 120.798 137.789  0.00  0.00    +0.266 C 
BRANCH  23  27
ATOM     24  C2  T10     1      99.670 119.482 138.956  0.00  0.00    -0.022 A 
ATOM     25  C3  T10     1      98.665 118.540 138.670  0.00  0.00    +0.006 A 
ATOM     26  C4  T10     1      97.381 118.966 138.292  0.00  0.00    +0.007 A 
ATOM     27  C5  T10     1      97.089 120.338 138.194  0.00  0.00    -0.010 A 
ATOM     28  C24 T10     1      98.092 121.280 138.481  0.00  0.00    +0.007 A 
ATOM     29  C25 T10     1      99.377 120.855 138.859  0.00  0.00    +0.006 A 
BRANCH  24  30
ATOM     30  C1  T10     1     101.059 119.021 139.365  0.00  0.00    +0.191 C 
BRANCH  30  31
ATOM     31  O1  T10     1     101.049 118.543 140.708  0.00  0.00    -0.390 OA
ATOM     32  H1  T10     1     101.126 119.312 141.300  0.00  0.00    +0.210 HD
ENDBRANCH  30  31
ENDBRANCH  24  30
ENDBRANCH  23  27
ENDBRANCH  22  23
ENDBRANCH   1  22
TORSDOF 6
ENDMDL
MODEL 8
REMARK VINA RESULT:    -7.910      3.037      7.727
REMARK INTER + INTRA:         -11.422
REMARK INTER:                 -10.683
REMARK INTRA:                  -0.739
REMARK UNBOUND:                -0.969
REMARK  Name = ligands_pdb/TRN_CHEMBL179737.pdb
REMARK  6 active torsions:
REMARK  status: ('A' for Active; 'I' for Inactive)
REMARK    1  A    between atoms: O1_1  and  C1_2
REMARK    2  A    between atoms: C1_2  and  C2_3
REMARK    3  A    between atoms: C5_6  and  C6_7
REMARK    4  A    between atoms: C6_7  and  O2_8
REMARK    5  A    between atoms: O2_8  and  C7_9
REMARK    6  A    between atoms: C8_12  and  C9_13
REMARK                            x       y       z     vdW  Elec       q    Type
REMARK                         _______ _______ _______ _____ _____    ______ ____
ROOT
ATOM      1  C7  T10     1      94.834 119.874 143.007  0.00  0.00    +0.237 A 
ATOM      2  N1  T10     1      93.567 120.355 143.078  0.00  0.00    -0.125 NA
ATOM      3  N2  T10     1      93.040 120.930 141.968  0.00  0.00    -0.189 N 
ATOM      4  C8  T10     1      91.836 121.549 141.711  0.00  0.00    +0.185 A 
ATOM      5  N3  T10     1      91.878 122.017 140.457  0.00  0.00    -0.127 NA
ATOM      6  N4  T10     1      92.991 121.725 139.922  0.00  0.00    -0.127 NA
ATOM      7  C15 T10     1      93.706 121.086 140.794  0.00  0.00    +0.182 A 
ATOM      8  C16 T10     1      95.019 120.610 140.688  0.00  0.00    +0.010 A 
ATOM      9  C17 T10     1      95.586 119.988 141.814  0.00  0.00    +0.026 A 
ATOM     10  C18 T10     1      97.021 119.510 141.593  0.00  0.00    +0.025 C 
ATOM     11  C19 T10     1      97.853 120.758 141.179  0.00  0.00    +0.009 C 
ATOM     12  C20 T10     1      97.217 121.456 139.933  0.00  0.00    +0.009 C 
ATOM     13  C21 T10     1      95.940 120.694 139.475  0.00  0.00    +0.023 C 
ATOM     14  C22 T10     1      96.359 119.236 139.129  0.00  0.00    +0.009 C 
ATOM     15  C23 T10     1      96.993 118.538 140.378  0.00  0.00    +0.009 C 
ENDROOT
BRANCH   4  16
ATOM     16  C9  T10     1      90.703 121.717 142.629  0.00  0.00    +0.021 A 
ATOM     17  C10 T10     1      90.235 123.011 142.939  0.00  0.00    +0.011 A 
ATOM     18  C11 T10     1      89.150 123.190 143.814  0.00  0.00    +0.001 A 
ATOM     19  C12 T10     1      88.516 122.077 144.384  0.00  0.00    +0.000 A 
ATOM     20  C13 T10     1      88.966 120.784 144.077  0.00  0.00    +0.001 A 
ATOM     21  C14 T10     1      90.051 120.606 143.203  0.00  0.00    +0.011 A 
ENDBRANCH   4  16
BRANCH   1  22
ATOM     22  O2  T10     1      95.420 119.271 144.099  0.00  0.00    -0.470 OA
BRANCH  22  23
ATOM     23  C6  T10     1      95.063 117.940 144.517  0.00  0.00    +0.266 C 
BRANCH  23  27
ATOM     24  C2  T10     1      96.619 117.271 148.516  0.00  0.00    -0.022 A 
ATOM     25  C3  T10     1      96.036 116.213 147.794  0.00  0.00    +0.006 A 
ATOM     26  C4  T10     1      95.534 116.430 146.500  0.00  0.00    +0.007 A 
ATOM     27  C5  T10     1      95.610 117.706 145.914  0.00  0.00    -0.010 A 
ATOM     28  C24 T10     1      96.191 118.763 146.635  0.00  0.00    +0.007 A 
ATOM     29  C25 T10     1      96.694 118.548 147.929  0.00  0.00    +0.006 A 
BRANCH  24  30
ATOM     30  C1  T10     1      97.162 117.037 149.916  0.00  0.00    +0.191 C 
BRANCH  30  31
ATOM     31  O1  T10     1      97.432 118.279 150.560  0.00  0.00    -0.390 OA
ATOM     32  H1  T10     1      98.137 118.129 151.214  0.00  0.00    +0.210 HD
ENDBRANCH  30  31
ENDBRANCH  24  30
ENDBRANCH  23  27
ENDBRANCH  22  23
ENDBRANCH   1  22
TORSDOF 6
ENDMDL
MODEL 9
REMARK VINA RESULT:    -7.781      2.755      6.538
REMARK INTER + INTRA:         -11.252
REMARK INTER:                 -10.156
REMARK INTRA:                  -1.096
REMARK UNBOUND:                -0.969
REMARK  Name = ligands_pdb/TRN_CHEMBL179737.pdb
REMARK  6 active torsions:
REMARK  status: ('A' for Active; 'I' for Inactive)
REMARK    1  A    between atoms: O1_1  and  C1_2
REMARK    2  A    between atoms: C1_2  and  C2_3
REMARK    3  A    between atoms: C5_6  and  C6_7
REMARK    4  A    between atoms: C6_7  and  O2_8
REMARK    5  A    between atoms: O2_8  and  C7_9
REMARK    6  A    between atoms: C8_12  and  C9_13
REMARK                            x       y       z     vdW  Elec       q    Type
REMARK                         _______ _______ _______ _____ _____    ______ ____
ROOT
ATOM      1  C7  T10     1      95.503 120.424 139.567  0.00  0.00    +0.237 A 
ATOM      2  N1  T10     1      95.400 120.129 140.887  0.00  0.00    -0.125 NA
ATOM      3  N2  T10     1      96.529 119.771 141.550  0.00  0.00    -0.189 N 
ATOM      4  C8  T10     1      96.771 119.370 142.846  0.00  0.00    +0.185 A 
ATOM      5  N3  T10     1      98.068 119.052 142.938  0.00  0.00    -0.127 NA
ATOM      6  N4  T10     1      98.641 119.238 141.821  0.00  0.00    -0.127 NA
ATOM      7  C15 T10     1      97.754 119.659 140.974  0.00  0.00    +0.182 A 
ATOM      8  C16 T10     1      97.895 119.947 139.611  0.00  0.00    +0.010 A 
ATOM      9  C17 T10     1      96.748 120.343 138.901  0.00  0.00    +0.026 A 
ATOM     10  C18 T10     1      97.010 120.628 137.422  0.00  0.00    +0.025 C 
ATOM     11  C19 T10     1      97.612 119.328 136.812  0.00  0.00    +0.009 C 
ATOM     12  C20 T10     1      98.882 118.883 137.608  0.00  0.00    +0.009 C 
ATOM     13  C21 T10     1      99.168 119.872 138.775  0.00  0.00    +0.023 C 
ATOM     14  C22 T10     1      99.380 121.283 138.155  0.00  0.00    +0.009 C 
ATOM     15  C23 T10     1      98.108 121.729 137.361  0.00  0.00    +0.009 C 
ENDROOT
BRANCH   4  16
ATOM     16  C9  T10     1      95.803 119.263 143.945  0.00  0.00    +0.021 A 
ATOM     17  C10 T10     1      96.183 118.655 145.160  0.00  0.00    +0.011 A 
ATOM     18  C11 T10     1      95.270 118.547 146.222  0.00  0.00    +0.001 A 
ATOM     19  C12 T10     1      93.968 119.051 146.085  0.00  0.00    +0.000 A 
ATOM     20  C13 T10     1      93.581 119.666 144.885  0.00  0.00    +0.001 A 
ATOM     21  C14 T10     1      94.494 119.773 143.822  0.00  0.00    +0.011 A 
ENDBRANCH   4  16
BRANCH   1  22
ATOM     22  O2  T10     1      94.392 120.802 138.842  0.00  0.00    -0.470 OA
BRANCH  22  23
ATOM     23  C6  T10     1      93.195 120.004 138.813  0.00  0.00    +0.266 C 
BRANCH  23  27
ATOM     24  C2  T10     1      90.902 120.788 142.416  0.00  0.00    -0.022 A 
ATOM     25  C3  T10     1      91.162 119.465 142.015  0.00  0.00    +0.006 A 
ATOM     26  C4  T10     1      91.904 119.212 140.849  0.00  0.00    +0.007 A 
ATOM     27  C5  T10     1      92.396 120.278 140.074  0.00  0.00    -0.010 A 
ATOM     28  C24 T10     1      92.134 121.600 140.475  0.00  0.00    +0.007 A 
ATOM     29  C25 T10     1      91.392 121.854 141.641  0.00  0.00    +0.006 A 
BRANCH  24  30
ATOM     30  C1  T10     1      90.098 121.062 143.677  0.00  0.00    +0.191 C 
BRANCH  30  31
ATOM     31  O1  T10     1      90.073 119.907 144.512  0.00  0.00    -0.390 OA
ATOM     32  H1  T10     1      89.210 119.472 144.395  0.00  0.00    +0.210 HD
ENDBRANCH  30  31
ENDBRANCH  24  30
ENDBRANCH  23  27
ENDBRANCH  22  23
ENDBRANCH   1  22
TORSDOF 6
ENDMDL
MODEL 10
REMARK VINA RESULT:    -7.770      3.407      7.734
REMARK INTER + INTRA:         -11.237
REMARK INTER:                  -9.657
REMARK INTRA:                  -1.580
REMARK UNBOUND:                -0.969
REMARK  Name = ligands_pdb/TRN_CHEMBL179737.pdb
REMARK  6 active torsions:
REMARK  status: ('A' for Active; 'I' for Inactive)
REMARK    1  A    between atoms: O1_1  and  C1_2
REMARK    2  A    between atoms: C1_2  and  C2_3
REMARK    3  A    between atoms: C5_6  and  C6_7
REMARK    4  A    between atoms: C6_7  and  O2_8
REMARK    5  A    between atoms: O2_8  and  C7_9
REMARK    6  A    between atoms: C8_12  and  C9_13
REMARK                            x       y       z     vdW  Elec       q    Type
REMARK                         _______ _______ _______ _____ _____    ______ ____
ROOT
ATOM      1  C7  T10     1      94.633 121.114 141.608  0.00  0.00    +0.237 A 
ATOM      2  N1  T10     1      95.537 121.288 140.611  0.00  0.00    -0.125 NA
ATOM      3  N2  T10     1      96.638 120.495 140.603  0.00  0.00    -0.189 N 
ATOM      4  C8  T10     1      97.749 120.437 139.789  0.00  0.00    +0.185 A 
ATOM      5  N3  T10     1      98.574 119.511 140.294  0.00  0.00    -0.127 NA
ATOM      6  N4  T10     1      98.061 118.989 141.330  0.00  0.00    -0.127 NA
ATOM      7  C15 T10     1      96.914 119.555 141.544  0.00  0.00    +0.182 A 
ATOM      8  C16 T10     1      96.008 119.355 142.593  0.00  0.00    +0.010 A 
ATOM      9  C17 T10     1      94.846 120.146 142.617  0.00  0.00    +0.026 A 
ATOM     10  C18 T10     1      93.929 119.851 143.804  0.00  0.00    +0.025 C 
ATOM     11  C19 T10     1      94.772 120.076 145.093  0.00  0.00    +0.009 C 
ATOM     12  C20 T10     1      96.070 119.205 145.061  0.00  0.00    +0.009 C 
ATOM     13  C21 T10     1      96.132 118.369 143.749  0.00  0.00    +0.023 C 
ATOM     14  C22 T10     1      94.866 117.465 143.705  0.00  0.00    +0.009 C 
ATOM     15  C23 T10     1      93.569 118.339 143.735  0.00  0.00    +0.009 C 
ENDROOT
BRANCH   4  16
ATOM     16  C9  T10     1      98.030 121.250 138.600  0.00  0.00    +0.021 A 
ATOM     17  C10 T10     1      98.139 122.652 138.716  0.00  0.00    +0.011 A 
ATOM     18  C11 T10     1      98.410 123.445 137.589  0.00  0.00    +0.001 A 
ATOM     19  C12 T10     1      98.582 122.845 136.332  0.00  0.00    +0.000 A 
ATOM     20  C13 T10     1      98.485 121.451 136.205  0.00  0.00    +0.001 A 
ATOM     21  C14 T10     1      98.213 120.659 137.332  0.00  0.00    +0.011 A 
ENDBRANCH   4  16
BRANCH   1  22
ATOM     22  O2  T10     1      93.491 121.884 141.664  0.00  0.00    -0.470 OA
BRANCH  22  23
ATOM     23  C6  T10     1      92.553 121.936 140.574  0.00  0.00    +0.266 C 
BRANCH  23  27
ATOM     24  C2  T10     1      90.409 118.163 140.413  0.00  0.00    -0.022 A 
ATOM     25  C3  T10     1      90.319 118.982 141.553  0.00  0.00    +0.006 A 
ATOM     26  C4  T10     1      91.012 120.203 141.605  0.00  0.00    +0.007 A 
ATOM     27  C5  T10     1      91.801 120.618 140.517  0.00  0.00    -0.010 A 
ATOM     28  C24 T10     1      91.892 119.799 139.378  0.00  0.00    +0.007 A 
ATOM     29  C25 T10     1      91.199 118.578 139.325  0.00  0.00    +0.006 A 
BRANCH  24  30
ATOM     30  C1  T10     1      89.659 116.842 140.358  0.00  0.00    +0.191 C 
BRANCH  30  31
ATOM     31  O1  T10     1      89.882 116.093 141.550  0.00  0.00    -0.390 OA
ATOM     32  H1  T10     1      89.348 115.281 141.497  0.00  0.00    +0.210 HD
ENDBRANCH  30  31
ENDBRANCH  24  30
ENDBRANCH  23  27
ENDBRANCH  22  23
ENDBRANCH   1  22
TORSDOF 6
ENDMDL
