MODEL 1
REMARK VINA RESULT:    -8.872      0.000      0.000
REMARK INTER + INTRA:         -12.324
REMARK INTER:                 -10.947
REMARK INTRA:                  -1.378
REMARK UNBOUND:                -1.378
REMARK  Name = ligands_pdb/TRN_CHEMBL121277.pdb
REMARK  5 active torsions:
REMARK  status: ('A' for Active; 'I' for Inactive)
REMARK    1  A    between atoms: C1_1  and  C2_2
REMARK    2  A    between atoms: C3_5  and  C4_6
REMARK    3  A    between atoms: C8_12  and  O2_13
REMARK    4  A    between atoms: O2_13  and  C9_14
REMARK    5  A    between atoms: C9_14  and  C10_15
REMARK                            x       y       z     vdW  Elec       q    Type
REMARK                         _______ _______ _______ _____ _____    ______ ____
ROOT
ATOM      1  C4  T02     1      94.388 118.339 144.990  0.00  0.00    +0.243 A 
ATOM      2  N2  T02     1      93.323 117.550 144.907  0.00  0.00    -0.122 NA
ATOM      3  N3  T02     1      92.722 117.792 143.692  0.00  0.00    -0.127 NA
ATOM      4  C5  T02     1      93.469 118.714 143.121  0.00  0.00    +0.182 A 
ATOM      5  C6  T02     1      93.247 119.292 141.842  0.00  0.00    +0.010 A 
ATOM      6  C7  T02     1      94.172 120.239 141.468  0.00  0.00    +0.026 A 
ATOM      7  C8  T02     1      95.233 120.584 142.303  0.00  0.00    +0.237 A 
ATOM      8  N5  T02     1      95.476 120.059 143.519  0.00  0.00    -0.125 NA
ATOM      9  N6  T02     1      94.539 119.119 143.865  0.00  0.00    -0.185 N 
ATOM     10  C15 T02     1      93.887 120.822 140.096  0.00  0.00    +0.025 C 
ATOM     11  C16 T02     1      92.451 121.424 140.143  0.00  0.00    +0.009 C 
ATOM     12  C17 T02     1      91.415 120.342 140.598  0.00  0.00    +0.009 C 
ATOM     13  C18 T02     1      92.133 118.988 140.870  0.00  0.00    +0.023 C 
ATOM     14  C19 T02     1      92.824 118.550 139.545  0.00  0.00    +0.009 C 
ATOM     15  C20 T02     1      93.860 119.631 139.091  0.00  0.00    +0.009 C 
ENDROOT
BRANCH   1  20
ATOM     16  C1  T02     1      97.187 116.827 148.663  0.00  0.00    +0.091 C 
ATOM     17  C2  T02     1      96.416 117.699 147.710  0.00  0.00    +0.169 A 
ATOM     18  N1  T02     1      96.377 119.018 147.851  0.00  0.00    -0.061 NA
ATOM     19  O1  T02     1      95.568 119.468 146.791  0.00  0.00    -0.329 OA
ATOM     20  C3  T02     1      95.231 118.318 146.158  0.00  0.00    +0.298 A 
ATOM     21  N7  T02     1      95.732 117.268 146.702  0.00  0.00    -0.189 NA
ENDBRANCH   1  20
BRANCH   7  22
ATOM     22  O2  T02     1      96.115 121.539 141.857  0.00  0.00    -0.470 OA
BRANCH  22  23
ATOM     23  C9  T02     1      97.471 121.236 141.469  0.00  0.00    +0.267 C 
BRANCH  23  24
ATOM     24  C10 T02     1      97.459 120.687 140.054  0.00  0.00    +0.008 A 
ATOM     25  C11 T02     1      97.629 119.313 139.809  0.00  0.00    +0.010 A 
ATOM     26  C12 T02     1      97.614 118.857 138.481  0.00  0.00    +0.020 A 
ATOM     27  C13 T02     1      97.431 119.791 137.446  0.00  0.00    +0.111 A 
ATOM     28  N4  T02     1      97.271 121.111 137.674  0.00  0.00    -0.263 NA
ATOM     29  C14 T02     1      97.287 121.546 138.951  0.00  0.00    +0.117 A 
ENDBRANCH  23  24
ENDBRANCH  22  23
ENDBRANCH   7  22
TORSDOF 4
ENDMDL
MODEL 2
REMARK VINA RESULT:    -8.249      2.172      4.490
REMARK INTER + INTRA:         -11.555
REMARK INTER:                 -10.257
REMARK INTRA:                  -1.298
REMARK UNBOUND:                -1.378
REMARK  Name = ligands_pdb/TRN_CHEMBL121277.pdb
REMARK  5 active torsions:
REMARK  status: ('A' for Active; 'I' for Inactive)
REMARK    1  A    between atoms: C1_1  and  C2_2
REMARK    2  A    between atoms: C3_5  and  C4_6
REMARK    3  A    between atoms: C8_12  and  O2_13
REMARK    4  A    between atoms: O2_13  and  C9_14
REMARK    5  A    between atoms: C9_14  and  C10_15
REMARK                            x       y       z     vdW  Elec       q    Type
REMARK                         _______ _______ _______ _____ _____    ______ ____
ROOT
ATOM      1  C4  T02     1      96.752 118.612 145.288  0.00  0.00    +0.243 A 
ATOM      2  N2  T02     1      97.958 118.942 144.842  0.00  0.00    -0.122 NA
ATOM      3  N3  T02     1      97.857 119.137 143.483  0.00  0.00    -0.127 NA
ATOM      4  C5  T02     1      96.591 118.910 143.200  0.00  0.00    +0.182 A 
ATOM      5  C6  T02     1      95.998 118.987 141.911  0.00  0.00    +0.010 A 
ATOM      6  C7  T02     1      94.653 118.703 141.876  0.00  0.00    +0.026 A 
ATOM      7  C8  T02     1      93.953 118.369 143.034  0.00  0.00    +0.237 A 
ATOM      8  N5  T02     1      94.479 118.286 144.271  0.00  0.00    -0.125 NA
ATOM      9  N6  T02     1      95.820 118.573 144.275  0.00  0.00    -0.185 N 
ATOM     10  C15 T02     1      94.073 118.801 140.477  0.00  0.00    +0.025 C 
ATOM     11  C16 T02     1      94.879 117.818 139.577  0.00  0.00    +0.009 C 
ATOM     12  C17 T02     1      96.410 118.136 139.650  0.00  0.00    +0.009 C 
ATOM     13  C18 T02     1      96.667 119.338 140.604  0.00  0.00    +0.023 C 
ATOM     14  C19 T02     1      95.889 120.561 140.036  0.00  0.00    +0.009 C 
ATOM     15  C20 T02     1      94.359 120.245 139.963  0.00  0.00    +0.009 C 
ENDROOT
BRANCH   1  20
ATOM     16  C1  T02     1      97.076 118.698 150.137  0.00  0.00    +0.091 C 
ATOM     17  C2  T02     1      96.653 118.366 148.732  0.00  0.00    +0.169 A 
ATOM     18  N1  T02     1      95.703 117.473 148.484  0.00  0.00    -0.061 NA
ATOM     19  O1  T02     1      95.601 117.438 147.081  0.00  0.00    -0.329 OA
ATOM     20  C3  T02     1      96.532 118.341 146.686  0.00  0.00    +0.298 A 
ATOM     21  N7  T02     1      97.158 118.891 147.664  0.00  0.00    -0.189 NA
ENDBRANCH   1  20
BRANCH   7  22
ATOM     22  O2  T02     1      92.611 118.099 142.916  0.00  0.00    -0.470 OA
BRANCH  22  23
ATOM     23  C9  T02     1      91.586 118.974 143.431  0.00  0.00    +0.267 C 
BRANCH  23  24
ATOM     24  C10 T02     1      91.361 120.097 142.434  0.00  0.00    +0.008 A 
ATOM     25  C11 T02     1      91.893 121.379 142.655  0.00  0.00    +0.010 A 
ATOM     26  C12 T02     1      91.652 122.383 141.704  0.00  0.00    +0.020 A 
ATOM     27  C13 T02     1      90.888 122.069 140.566  0.00  0.00    +0.111 A 
ATOM     28  N4  T02     1      90.372 120.842 140.349  0.00  0.00    -0.263 NA
ATOM     29  C14 T02     1      90.605 119.880 141.266  0.00  0.00    +0.117 A 
ENDBRANCH  23  24
ENDBRANCH  22  23
ENDBRANCH   7  22
TORSDOF 4
ENDMDL
MODEL 3
REMARK VINA RESULT:    -7.794      2.808      6.627
REMARK INTER + INTRA:         -10.995
REMARK INTER:                  -9.577
REMARK INTRA:                  -1.418
REMARK UNBOUND:                -1.378
REMARK  Name = ligands_pdb/TRN_CHEMBL121277.pdb
REMARK  5 active torsions:
REMARK  status: ('A' for Active; 'I' for Inactive)
REMARK    1  A    between atoms: C1_1  and  C2_2
REMARK    2  A    between atoms: C3_5  and  C4_6
REMARK    3  A    between atoms: C8_12  and  O2_13
REMARK    4  A    between atoms: O2_13  and  C9_14
REMARK    5  A    between atoms: C9_14  and  C10_15
REMARK                            x       y       z     vdW  Elec       q    Type
REMARK                         _______ _______ _______ _____ _____    ______ ____
ROOT
ATOM      1  C4  T02     1      97.597 119.318 140.778  0.00  0.00    +0.243 A 
ATOM      2  N2  T02     1      98.504 119.350 141.748  0.00  0.00    -0.122 NA
ATOM      3  N3  T02     1      97.847 119.130 142.937  0.00  0.00    -0.127 NA
ATOM      4  C5  T02     1      96.582 118.979 142.603  0.00  0.00    +0.182 A 
ATOM      5  C6  T02     1      95.508 118.730 143.500  0.00  0.00    +0.010 A 
ATOM      6  C7  T02     1      94.274 118.610 142.904  0.00  0.00    +0.026 A 
ATOM      7  C8  T02     1      94.122 118.732 141.524  0.00  0.00    +0.237 A 
ATOM      8  N5  T02     1      95.114 118.968 140.644  0.00  0.00    -0.125 NA
ATOM      9  N6  T02     1      96.331 119.082 141.266  0.00  0.00    -0.185 N 
ATOM     10  C15 T02     1      93.166 118.344 143.906  0.00  0.00    +0.025 C 
ATOM     11  C16 T02     1      93.185 119.516 144.933  0.00  0.00    +0.009 C 
ATOM     12  C17 T02     1      94.603 119.655 145.580  0.00  0.00    +0.009 C 
ATOM     13  C18 T02     1      95.570 118.582 145.001  0.00  0.00    +0.023 C 
ATOM     14  C19 T02     1      94.966 117.185 145.323  0.00  0.00    +0.009 C 
ATOM     15  C20 T02     1      93.549 117.043 144.675  0.00  0.00    +0.009 C 
ENDROOT
BRANCH   1  20
ATOM     16  C1  T02     1      98.555 121.384 136.485  0.00  0.00    +0.091 C 
ATOM     17  C2  T02     1      98.391 120.374 137.587  0.00  0.00    +0.169 A 
ATOM     18  N1  T02     1      98.654 119.087 137.397  0.00  0.00    -0.061 NA
ATOM     19  O1  T02     1      98.379 118.478 138.635  0.00  0.00    -0.329 OA
ATOM     20  C3  T02     1      97.979 119.519 139.404  0.00  0.00    +0.298 A 
ATOM     21  N7  T02     1      97.984 120.645 138.784  0.00  0.00    -0.189 NA
ENDBRANCH   1  20
BRANCH   7  22
ATOM     22  O2  T02     1      92.857 118.600 141.005  0.00  0.00    -0.470 OA
BRANCH  22  23
ATOM     23  C9  T02     1      92.265 119.574 140.121  0.00  0.00    +0.267 C 
BRANCH  23  24
ATOM     24  C10 T02     1      92.073 120.871 140.887  0.00  0.00    +0.008 A 
ATOM     25  C11 T02     1      91.220 120.933 142.003  0.00  0.00    +0.010 A 
ATOM     26  C12 T02     1      91.075 122.158 142.674  0.00  0.00    +0.020 A 
ATOM     27  C13 T02     1      91.787 123.275 142.205  0.00  0.00    +0.111 A 
ATOM     28  N4  T02     1      92.604 123.224 141.133  0.00  0.00    -0.263 NA
ATOM     29  C14 T02     1      92.740 122.046 140.490  0.00  0.00    +0.117 A 
ENDBRANCH  23  24
ENDBRANCH  22  23
ENDBRANCH   7  22
TORSDOF 4
ENDMDL
MODEL 4
REMARK VINA RESULT:    -7.788      3.588      8.689
REMARK INTER + INTRA:         -10.987
REMARK INTER:                  -9.562
REMARK INTRA:                  -1.425
REMARK UNBOUND:                -1.378
REMARK  Name = ligands_pdb/TRN_CHEMBL121277.pdb
REMARK  5 active torsions:
REMARK  status: ('A' for Active; 'I' for Inactive)
REMARK    1  A    between atoms: C1_1  and  C2_2
REMARK    2  A    between atoms: C3_5  and  C4_6
REMARK    3  A    between atoms: C8_12  and  O2_13
REMARK    4  A    between atoms: O2_13  and  C9_14
REMARK    5  A    between atoms: C9_14  and  C10_15
REMARK                            x       y       z     vdW  Elec       q    Type
REMARK                         _______ _______ _______ _____ _____    ______ ____
ROOT
ATOM      1  C4  T02     1      97.184 124.934 137.477  0.00  0.00    +0.243 A 
ATOM      2  N2  T02     1      98.507 125.034 137.410  0.00  0.00    -0.122 NA
ATOM      3  N3  T02     1      99.025 123.766 137.547  0.00  0.00    -0.127 NA
ATOM      4  C5  T02     1      97.976 122.983 137.687  0.00  0.00    +0.182 A 
ATOM      5  C6  T02     1      98.006 121.573 137.863  0.00  0.00    +0.010 A 
ATOM      6  C7  T02     1      96.771 120.981 137.987  0.00  0.00    +0.026 A 
ATOM      7  C8  T02     1      95.599 121.733 137.941  0.00  0.00    +0.237 A 
ATOM      8  N5  T02     1      95.530 123.068 137.777  0.00  0.00    -0.125 NA
ATOM      9  N6  T02     1      96.775 123.631 137.656  0.00  0.00    -0.185 N 
ATOM     10  C15 T02     1      96.862 119.477 138.171  0.00  0.00    +0.025 C 
ATOM     11  C16 T02     1      97.739 119.222 139.433  0.00  0.00    +0.009 C 
ATOM     12  C17 T02     1      99.129 119.927 139.287  0.00  0.00    +0.009 C 
ATOM     13  C18 T02     1      99.216 120.674 137.925  0.00  0.00    +0.023 C 
ATOM     14  C19 T02     1      99.027 119.617 136.799  0.00  0.00    +0.009 C 
ATOM     15  C20 T02     1      97.637 118.913 136.942  0.00  0.00    +0.009 C 
ENDROOT
BRANCH   1  20
ATOM     16  C1  T02     1      94.598 128.634 135.677  0.00  0.00    +0.091 C 
ATOM     17  C2  T02     1      95.252 127.667 136.625  0.00  0.00    +0.169 A 
ATOM     18  N1  T02     1      95.124 127.788 137.941  0.00  0.00    -0.061 NA
ATOM     19  O1  T02     1      95.870 126.721 138.473  0.00  0.00    -0.329 OA
ATOM     20  C3  T02     1      96.350 126.103 137.367  0.00  0.00    +0.298 A 
ATOM     21  N7  T02     1      95.986 126.664 136.270  0.00  0.00    -0.189 NA
ENDBRANCH   1  20
BRANCH   7  22
ATOM     22  O2  T02     1      94.404 121.067 138.073  0.00  0.00    -0.470 OA
BRANCH  22  23
ATOM     23  C9  T02     1      93.575 121.165 139.249  0.00  0.00    +0.267 C 
BRANCH  23  24
ATOM     24  C10 T02     1      94.156 120.268 140.327  0.00  0.00    +0.008 A 
ATOM     25  C11 T02     1      94.895 120.805 141.396  0.00  0.00    +0.010 A 
ATOM     26  C12 T02     1      95.414 119.931 142.364  0.00  0.00    +0.020 A 
ATOM     27  C13 T02     1      95.176 118.552 142.229  0.00  0.00    +0.111 A 
ATOM     28  N4  T02     1      94.472 118.030 141.204  0.00  0.00    -0.263 NA
ATOM     29  C14 T02     1      93.976 118.872 140.275  0.00  0.00    +0.117 A 
ENDBRANCH  23  24
ENDBRANCH  22  23
ENDBRANCH   7  22
TORSDOF 4
ENDMDL
MODEL 5
REMARK VINA RESULT:    -7.653      2.427      6.635
REMARK INTER + INTRA:         -10.821
REMARK INTER:                 -10.083
REMARK INTRA:                  -0.738
REMARK UNBOUND:                -1.378
REMARK  Name = ligands_pdb/TRN_CHEMBL121277.pdb
REMARK  5 active torsions:
REMARK  status: ('A' for Active; 'I' for Inactive)
REMARK    1  A    between atoms: C1_1  and  C2_2
REMARK    2  A    between atoms: C3_5  and  C4_6
REMARK    3  A    between atoms: C8_12  and  O2_13
REMARK    4  A    between atoms: O2_13  and  C9_14
REMARK    5  A    between atoms: C9_14  and  C10_15
REMARK                            x       y       z     vdW  Elec       q    Type
REMARK                         _______ _______ _______ _____ _____    ______ ____
ROOT
ATOM      1  C4  T02     1      97.615 119.621 138.628  0.00  0.00    +0.243 A 
ATOM      2  N2  T02     1      97.140 120.133 137.498  0.00  0.00    -0.122 NA
ATOM      3  N3  T02     1      95.815 120.441 137.708  0.00  0.00    -0.127 NA
ATOM      4  C5  T02     1      95.579 120.092 138.956  0.00  0.00    +0.182 A 
ATOM      5  C6  T02     1      94.337 120.218 139.635  0.00  0.00    +0.010 A 
ATOM      6  C7  T02     1      94.345 119.781 140.940  0.00  0.00    +0.026 A 
ATOM      7  C8  T02     1      95.499 119.258 141.520  0.00  0.00    +0.237 A 
ATOM      8  N5  T02     1      96.692 119.122 140.909  0.00  0.00    -0.125 NA
ATOM      9  N6  T02     1      96.653 119.566 139.612  0.00  0.00    -0.185 N 
ATOM     10  C15 T02     1      92.996 119.939 141.616  0.00  0.00    +0.025 C 
ATOM     11  C16 T02     1      91.960 119.148 140.763  0.00  0.00    +0.009 C 
ATOM     12  C17 T02     1      91.983 119.638 139.277  0.00  0.00    +0.009 C 
ATOM     13  C18 T02     1      93.039 120.768 139.097  0.00  0.00    +0.023 C 
ATOM     14  C19 T02     1      92.639 121.937 140.044  0.00  0.00    +0.009 C 
ATOM     15  C20 T02     1      92.616 121.448 141.530  0.00  0.00    +0.009 C 
ENDROOT
BRANCH   1  20
ATOM     16  C1  T02     1     102.289 119.293 139.916  0.00  0.00    +0.091 C 
ATOM     17  C2  T02     1     100.961 119.041 139.258  0.00  0.00    +0.169 A 
ATOM     18  N1  T02     1     100.799 118.071 138.366  0.00  0.00    -0.061 NA
ATOM     19  O1  T02     1      99.447 118.157 137.984  0.00  0.00    -0.329 OA
ATOM     20  C3  T02     1      98.988 119.195 138.724  0.00  0.00    +0.298 A 
ATOM     21  N7  T02     1      99.884 119.722 139.479  0.00  0.00    -0.189 NA
ENDBRANCH   1  20
BRANCH   7  22
ATOM     22  O2  T02     1      95.427 118.842 142.828  0.00  0.00    -0.470 OA
BRANCH  22  23
ATOM     23  C9  T02     1      96.593 118.609 143.644  0.00  0.00    +0.267 C 
BRANCH  23  24
ATOM     24  C10 T02     1      96.190 118.710 145.105  0.00  0.00    +0.008 A 
ATOM     25  C11 T02     1      97.150 118.623 146.128  0.00  0.00    +0.010 A 
ATOM     26  C12 T02     1      96.724 118.719 147.462  0.00  0.00    +0.020 A 
ATOM     27  C13 T02     1      95.354 118.895 147.725  0.00  0.00    +0.111 A 
ATOM     28  N4  T02     1      94.427 118.974 146.748  0.00  0.00    -0.263 NA
ATOM     29  C14 T02     1      94.840 118.881 145.467  0.00  0.00    +0.117 A 
ENDBRANCH  23  24
ENDBRANCH  22  23
ENDBRANCH   7  22
TORSDOF 4
ENDMDL
MODEL 6
REMARK VINA RESULT:    -7.617      2.958      7.108
REMARK INTER + INTRA:         -10.776
REMARK INTER:                  -9.553
REMARK INTRA:                  -1.223
REMARK UNBOUND:                -1.378
REMARK  Name = ligands_pdb/TRN_CHEMBL121277.pdb
REMARK  5 active torsions:
REMARK  status: ('A' for Active; 'I' for Inactive)
REMARK    1  A    between atoms: C1_1  and  C2_2
REMARK    2  A    between atoms: C3_5  and  C4_6
REMARK    3  A    between atoms: C8_12  and  O2_13
REMARK    4  A    between atoms: O2_13  and  C9_14
REMARK    5  A    between atoms: C9_14  and  C10_15
REMARK                            x       y       z     vdW  Elec       q    Type
REMARK                         _______ _______ _______ _____ _____    ______ ____
ROOT
ATOM      1  C4  T02     1      97.160 120.634 140.523  0.00  0.00    +0.243 A 
ATOM      2  N2  T02     1      97.988 119.615 140.726  0.00  0.00    -0.122 NA
ATOM      3  N3  T02     1      97.538 118.930 141.831  0.00  0.00    -0.127 NA
ATOM      4  C5  T02     1      96.463 119.583 142.222  0.00  0.00    +0.182 A 
ATOM      5  C6  T02     1      95.645 119.251 143.335  0.00  0.00    +0.010 A 
ATOM      6  C7  T02     1      94.575 120.092 143.537  0.00  0.00    +0.026 A 
ATOM      7  C8  T02     1      94.341 121.179 142.697  0.00  0.00    +0.237 A 
ATOM      8  N5  T02     1      95.092 121.525 141.635  0.00  0.00    -0.125 NA
ATOM      9  N6  T02     1      96.150 120.670 141.458  0.00  0.00    -0.185 N 
ATOM     10  C15 T02     1      93.737 119.691 144.737  0.00  0.00    +0.025 C 
ATOM     11  C16 T02     1      94.684 119.676 145.974  0.00  0.00    +0.009 C 
ATOM     12  C17 T02     1      95.909 118.737 145.717  0.00  0.00    +0.009 C 
ATOM     13  C18 T02     1      95.815 118.102 144.299  0.00  0.00    +0.023 C 
ATOM     14  C19 T02     1      94.490 117.288 144.239  0.00  0.00    +0.009 C 
ATOM     15  C20 T02     1      93.264 118.225 144.494  0.00  0.00    +0.009 C 
ENDROOT
BRANCH   1  20
ATOM     16  C1  T02     1      99.243 123.234 136.985  0.00  0.00    +0.091 C 
ATOM     17  C2  T02     1      98.230 122.649 137.931  0.00  0.00    +0.169 A 
ATOM     18  N1  T02     1      96.954 123.010 137.894  0.00  0.00    -0.061 NA
ATOM     19  O1  T02     1      96.340 122.264 138.916  0.00  0.00    -0.329 OA
ATOM     20  C3  T02     1      97.369 121.547 139.429  0.00  0.00    +0.298 A 
ATOM     21  N7  T02     1      98.491 121.776 138.847  0.00  0.00    -0.189 NA
ENDBRANCH   1  20
BRANCH   7  22
ATOM     22  O2  T02     1      93.251 121.972 142.966  0.00  0.00    -0.470 OA
BRANCH  22  23
ATOM     23  C9  T02     1      92.092 122.031 142.109  0.00  0.00    +0.267 C 
BRANCH  23  24
ATOM     24  C10 T02     1      91.119 120.947 142.534  0.00  0.00    +0.008 A 
ATOM     25  C11 T02     1      91.027 119.737 141.824  0.00  0.00    +0.010 A 
ATOM     26  C12 T02     1      90.108 118.768 142.257  0.00  0.00    +0.020 A 
ATOM     27  C13 T02     1      89.313 119.045 143.383  0.00  0.00    +0.111 A 
ATOM     28  N4  T02     1      89.393 120.205 144.066  0.00  0.00    -0.263 NA
ATOM     29  C14 T02     1      90.276 121.134 143.647  0.00  0.00    +0.117 A 
ENDBRANCH  23  24
ENDBRANCH  22  23
ENDBRANCH   7  22
TORSDOF 4
ENDMDL
MODEL 7
REMARK VINA RESULT:    -7.613      3.516      8.821
REMARK INTER + INTRA:         -10.772
REMARK INTER:                  -9.446
REMARK INTRA:                  -1.325
REMARK UNBOUND:                -1.378
REMARK  Name = ligands_pdb/TRN_CHEMBL121277.pdb
REMARK  5 active torsions:
REMARK  status: ('A' for Active; 'I' for Inactive)
REMARK    1  A    between atoms: C1_1  and  C2_2
REMARK    2  A    between atoms: C3_5  and  C4_6
REMARK    3  A    between atoms: C8_12  and  O2_13
REMARK    4  A    between atoms: O2_13  and  C9_14
REMARK    5  A    between atoms: C9_14  and  C10_15
REMARK                            x       y       z     vdW  Elec       q    Type
REMARK                         _______ _______ _______ _____ _____    ______ ____
ROOT
ATOM      1  C4  T02     1      96.489 124.162 136.918  0.00  0.00    +0.243 A 
ATOM      2  N2  T02     1      97.752 124.445 137.214  0.00  0.00    -0.122 NA
ATOM      3  N3  T02     1      98.223 123.437 138.025  0.00  0.00    -0.127 NA
ATOM      4  C5  T02     1      97.208 122.610 138.163  0.00  0.00    +0.182 A 
ATOM      5  C6  T02     1      97.210 121.407 138.920  0.00  0.00    +0.010 A 
ATOM      6  C7  T02     1      96.021 120.715 138.908  0.00  0.00    +0.026 A 
ATOM      7  C8  T02     1      94.917 121.185 138.198  0.00  0.00    +0.237 A 
ATOM      8  N5  T02     1      94.878 122.317 137.471  0.00  0.00    -0.125 NA
ATOM      9  N6  T02     1      96.075 122.985 137.502  0.00  0.00    -0.185 N 
ATOM     10  C15 T02     1      96.080 119.441 139.731  0.00  0.00    +0.025 C 
ATOM     11  C16 T02     1      96.480 119.850 141.181  0.00  0.00    +0.009 C 
ATOM     12  C17 T02     1      97.819 120.661 141.174  0.00  0.00    +0.009 C 
ATOM     13  C18 T02     1      98.348 120.818 139.718  0.00  0.00    +0.023 C 
ATOM     14  C19 T02     1      98.580 119.388 139.148  0.00  0.00    +0.009 C 
ATOM     15  C20 T02     1      97.242 118.577 139.153  0.00  0.00    +0.009 C 
ENDROOT
BRANCH   1  20
ATOM     16  C1  T02     1      94.575 128.137 134.879  0.00  0.00    +0.091 C 
ATOM     17  C2  T02     1      94.900 126.704 135.204  0.00  0.00    +0.169 A 
ATOM     18  N1  T02     1      94.328 125.697 134.556  0.00  0.00    -0.061 NA
ATOM     19  O1  T02     1      94.874 124.539 135.139  0.00  0.00    -0.329 OA
ATOM     20  C3  T02     1      95.715 125.039 136.077  0.00  0.00    +0.298 A 
ATOM     21  N7  T02     1      95.730 126.323 136.118  0.00  0.00    -0.189 NA
ENDBRANCH   1  20
BRANCH   7  22
ATOM     22  O2  T02     1      93.766 120.435 138.236  0.00  0.00    -0.470 OA
BRANCH  22  23
ATOM     23  C9  T02     1      92.586 120.845 138.957  0.00  0.00    +0.267 C 
BRANCH  23  24
ATOM     24  C10 T02     1      92.728 120.411 140.405  0.00  0.00    +0.008 A 
ATOM     25  C11 T02     1      93.025 121.344 141.414  0.00  0.00    +0.010 A 
ATOM     26  C12 T02     1      93.150 120.890 142.737  0.00  0.00    +0.020 A 
ATOM     27  C13 T02     1      92.975 119.520 143.002  0.00  0.00    +0.111 A 
ATOM     28  N4  T02     1      92.693 118.620 142.038  0.00  0.00    -0.263 NA
ATOM     29  C14 T02     1      92.575 119.060 140.769  0.00  0.00    +0.117 A 
ENDBRANCH  23  24
ENDBRANCH  22  23
ENDBRANCH   7  22
TORSDOF 4
ENDMDL
MODEL 8
REMARK VINA RESULT:    -7.481      2.503      6.311
REMARK INTER + INTRA:         -10.608
REMARK INTER:                  -9.765
REMARK INTRA:                  -0.842
REMARK UNBOUND:                -1.378
REMARK  Name = ligands_pdb/TRN_CHEMBL121277.pdb
REMARK  5 active torsions:
REMARK  status: ('A' for Active; 'I' for Inactive)
REMARK    1  A    between atoms: C1_1  and  C2_2
REMARK    2  A    between atoms: C3_5  and  C4_6
REMARK    3  A    between atoms: C8_12  and  O2_13
REMARK    4  A    between atoms: O2_13  and  C9_14
REMARK    5  A    between atoms: C9_14  and  C10_15
REMARK                            x       y       z     vdW  Elec       q    Type
REMARK                         _______ _______ _______ _____ _____    ______ ____
ROOT
ATOM      1  C4  T02     1      92.417 119.236 140.620  0.00  0.00    +0.243 A 
ATOM      2  N2  T02     1      92.291 119.299 139.299  0.00  0.00    -0.122 NA
ATOM      3  N3  T02     1      93.535 119.577 138.779  0.00  0.00    -0.127 NA
ATOM      4  C5  T02     1      94.330 119.663 139.825  0.00  0.00    +0.182 A 
ATOM      5  C6  T02     1      95.724 119.939 139.792  0.00  0.00    +0.010 A 
ATOM      6  C7  T02     1      96.334 119.976 141.024  0.00  0.00    +0.026 A 
ATOM      7  C8  T02     1      95.613 119.757 142.196  0.00  0.00    +0.237 A 
ATOM      8  N5  T02     1      94.295 119.494 142.267  0.00  0.00    -0.125 NA
ATOM      9  N6  T02     1      93.713 119.463 141.026  0.00  0.00    -0.185 N 
ATOM     10  C15 T02     1      97.819 120.274 140.929  0.00  0.00    +0.025 C 
ATOM     11  C16 T02     1      97.968 121.635 140.185  0.00  0.00    +0.009 C 
ATOM     12  C17 T02     1      97.244 121.584 138.799  0.00  0.00    +0.009 C 
ATOM     13  C18 T02     1      96.589 120.189 138.581  0.00  0.00    +0.023 C 
ATOM     14  C19 T02     1      97.725 119.126 138.635  0.00  0.00    +0.009 C 
ATOM     15  C20 T02     1      98.449 119.174 140.021  0.00  0.00    +0.009 C 
ENDROOT
BRANCH   1  20
ATOM     16  C1  T02     1      88.737 119.724 143.757  0.00  0.00    +0.091 C 
ATOM     17  C2  T02     1      89.719 119.147 142.774  0.00  0.00    +0.169 A 
ATOM     18  N1  T02     1      89.674 117.870 142.413  0.00  0.00    -0.061 NA
ATOM     19  O1  T02     1      90.737 117.717 141.505  0.00  0.00    -0.329 OA
ATOM     20  C3  T02     1      91.277 118.958 141.456  0.00  0.00    +0.298 A 
ATOM     21  N7  T02     1      90.675 119.808 142.209  0.00  0.00    -0.189 NA
ENDBRANCH   1  20
BRANCH   7  22
ATOM     22  O2  T02     1      96.296 119.811 143.388  0.00  0.00    -0.470 OA
BRANCH  22  23
ATOM     23  C9  T02     1      96.739 118.634 144.093  0.00  0.00    +0.267 C 
BRANCH  23  24
ATOM     24  C10 T02     1      96.272 118.729 145.535  0.00  0.00    +0.008 A 
ATOM     25  C11 T02     1      97.169 118.539 146.601  0.00  0.00    +0.010 A 
ATOM     26  C12 T02     1      96.684 118.633 147.915  0.00  0.00    +0.020 A 
ATOM     27  C13 T02     1      95.321 118.912 148.116  0.00  0.00    +0.111 A 
ATOM     28  N4  T02     1      94.455 119.091 147.098  0.00  0.00    -0.263 NA
ATOM     29  C14 T02     1      94.923 118.999 145.837  0.00  0.00    +0.117 A 
ENDBRANCH  23  24
ENDBRANCH  22  23
ENDBRANCH   7  22
TORSDOF 4
ENDMDL
MODEL 9
REMARK VINA RESULT:    -7.433      2.459      6.922
REMARK INTER + INTRA:         -10.548
REMARK INTER:                  -9.548
REMARK INTRA:                  -1.000
REMARK UNBOUND:                -1.378
REMARK  Name = ligands_pdb/TRN_CHEMBL121277.pdb
REMARK  5 active torsions:
REMARK  status: ('A' for Active; 'I' for Inactive)
REMARK    1  A    between atoms: C1_1  and  C2_2
REMARK    2  A    between atoms: C3_5  and  C4_6
REMARK    3  A    between atoms: C8_12  and  O2_13
REMARK    4  A    between atoms: O2_13  and  C9_14
REMARK    5  A    between atoms: C9_14  and  C10_15
REMARK                            x       y       z     vdW  Elec       q    Type
REMARK                         _______ _______ _______ _____ _____    ______ ____
ROOT
ATOM      1  C4  T02     1      94.823 121.940 138.514  0.00  0.00    +0.243 A 
ATOM      2  N2  T02     1      93.993 122.944 138.260  0.00  0.00    -0.122 NA
ATOM      3  N3  T02     1      92.868 122.756 139.031  0.00  0.00    -0.127 NA
ATOM      4  C5  T02     1      93.097 121.646 139.702  0.00  0.00    +0.182 A 
ATOM      5  C6  T02     1      92.215 121.040 140.636  0.00  0.00    +0.010 A 
ATOM      6  C7  T02     1      92.686 119.881 141.207  0.00  0.00    +0.026 A 
ATOM      7  C8  T02     1      93.936 119.365 140.872  0.00  0.00    +0.237 A 
ATOM      8  N5  T02     1      94.798 119.910 139.993  0.00  0.00    -0.125 NA
ATOM      9  N6  T02     1      94.303 121.063 139.440  0.00  0.00    -0.185 N 
ATOM     10  C15 T02     1      91.705 119.278 142.195  0.00  0.00    +0.025 C 
ATOM     11  C16 T02     1      90.373 119.027 141.426  0.00  0.00    +0.009 C 
ATOM     12  C17 T02     1      89.867 120.349 140.759  0.00  0.00    +0.009 C 
ATOM     13  C18 T02     1      90.848 121.519 141.063  0.00  0.00    +0.023 C 
ATOM     14  C19 T02     1      90.913 121.684 142.610  0.00  0.00    +0.009 C 
ATOM     15  C20 T02     1      91.420 120.364 143.277  0.00  0.00    +0.009 C 
ENDROOT
BRANCH   1  20
ATOM     16  C1  T02     1      99.332 122.920 136.989  0.00  0.00    +0.091 C 
ATOM     17  C2  T02     1      98.003 122.250 137.202  0.00  0.00    +0.169 A 
ATOM     18  N1  T02     1      97.701 121.099 136.612  0.00  0.00    -0.061 NA
ATOM     19  O1  T02     1      96.395 120.805 137.046  0.00  0.00    -0.329 OA
ATOM     20  C3  T02     1      96.100 121.854 137.853  0.00  0.00    +0.298 A 
ATOM     21  N7  T02     1      97.052 122.712 137.945  0.00  0.00    -0.189 NA
ENDBRANCH   1  20
BRANCH   7  22
ATOM     22  O2  T02     1      94.335 118.202 141.486  0.00  0.00    -0.470 OA
BRANCH  22  23
ATOM     23  C9  T02     1      95.671 117.997 141.987  0.00  0.00    +0.267 C 
BRANCH  23  24
ATOM     24  C10 T02     1      95.660 118.200 143.492  0.00  0.00    +0.008 A 
ATOM     25  C11 T02     1      96.799 118.676 144.167  0.00  0.00    +0.010 A 
ATOM     26  C12 T02     1      96.737 118.842 145.559  0.00  0.00    +0.020 A 
ATOM     27  C13 T02     1      95.541 118.525 146.227  0.00  0.00    +0.111 A 
ATOM     28  N4  T02     1      94.447 118.065 145.586  0.00  0.00    -0.263 NA
ATOM     29  C14 T02     1      94.510 117.905 144.248  0.00  0.00    +0.117 A 
ENDBRANCH  23  24
ENDBRANCH  22  23
ENDBRANCH   7  22
TORSDOF 4
ENDMDL
MODEL 10
REMARK VINA RESULT:    -7.231      1.940      4.996
REMARK INTER + INTRA:         -10.300
REMARK INTER:                  -9.563
REMARK INTRA:                  -0.737
REMARK UNBOUND:                -1.378
REMARK  Name = ligands_pdb/TRN_CHEMBL121277.pdb
REMARK  5 active torsions:
REMARK  status: ('A' for Active; 'I' for Inactive)
REMARK    1  A    between atoms: C1_1  and  C2_2
REMARK    2  A    between atoms: C3_5  and  C4_6
REMARK    3  A    between atoms: C8_12  and  O2_13
REMARK    4  A    between atoms: O2_13  and  C9_14
REMARK    5  A    between atoms: C9_14  and  C10_15
REMARK                            x       y       z     vdW  Elec       q    Type
REMARK                         _______ _______ _______ _____ _____    ______ ____
ROOT
ATOM      1  C4  T02     1      96.940 119.059 143.593  0.00  0.00    +0.243 A 
ATOM      2  N2  T02     1      98.260 118.912 143.576  0.00  0.00    -0.122 NA
ATOM      3  N3  T02     1      98.693 119.215 142.305  0.00  0.00    -0.127 NA
ATOM      4  C5  T02     1      97.600 119.526 141.638  0.00  0.00    +0.182 A 
ATOM      5  C6  T02     1      97.539 119.911 140.272  0.00  0.00    +0.010 A 
ATOM      6  C7  T02     1      96.275 120.186 139.806  0.00  0.00    +0.026 A 
ATOM      7  C8  T02     1      95.159 120.084 140.635  0.00  0.00    +0.237 A 
ATOM      8  N5  T02     1      95.178 119.723 141.932  0.00  0.00    -0.125 NA
ATOM      9  N6  T02     1      96.450 119.455 142.369  0.00  0.00    -0.185 N 
ATOM     10  C15 T02     1      96.269 120.592 138.343  0.00  0.00    +0.025 C 
ATOM     11  C16 T02     1      96.924 119.428 137.541  0.00  0.00    +0.009 C 
ATOM     12  C17 T02     1      98.350 119.109 138.103  0.00  0.00    +0.009 C 
ATOM     13  C18 T02     1      98.684 120.050 139.297  0.00  0.00    +0.023 C 
ATOM     14  C19 T02     1      98.627 121.513 138.770  0.00  0.00    +0.009 C 
ATOM     15  C20 T02     1      97.201 121.834 138.210  0.00  0.00    +0.009 C 
ENDROOT
BRANCH   1  20
ATOM     16  C1  T02     1      95.654 118.668 148.263  0.00  0.00    +0.091 C 
ATOM     17  C2  T02     1      95.626 118.642 146.760  0.00  0.00    +0.169 A 
ATOM     18  N1  T02     1      94.549 118.250 146.090  0.00  0.00    -0.061 NA
ATOM     19  O1  T02     1      94.910 118.358 144.735  0.00  0.00    -0.329 OA
ATOM     20  C3  T02     1      96.187 118.810 144.796  0.00  0.00    +0.298 A 
ATOM     21  N7  T02     1      96.613 118.978 145.996  0.00  0.00    -0.189 NA
ENDBRANCH   1  20
BRANCH   7  22
ATOM     22  O2  T02     1      93.930 120.376 140.094  0.00  0.00    -0.470 OA
BRANCH  22  23
ATOM     23  C9  T02     1      92.763 120.645 140.897  0.00  0.00    +0.267 C 
BRANCH  23  24
ATOM     24  C10 T02     1      91.770 119.513 140.701  0.00  0.00    +0.008 A 
ATOM     25  C11 T02     1      91.266 119.204 139.425  0.00  0.00    +0.010 A 
ATOM     26  C12 T02     1      90.347 118.150 139.300  0.00  0.00    +0.020 A 
ATOM     27  C13 T02     1      89.963 117.445 140.454  0.00  0.00    +0.111 A 
ATOM     28  N4  T02     1      90.439 117.740 141.681  0.00  0.00    -0.263 NA
ATOM     29  C14 T02     1      91.321 118.753 141.798  0.00  0.00    +0.117 A 
ENDBRANCH  23  24
ENDBRANCH  22  23
ENDBRANCH   7  22
TORSDOF 4
ENDMDL
