MODEL 1
REMARK VINA RESULT:    -8.400      0.000      0.000
REMARK INTER + INTRA:         -18.355
REMARK INTER:                 -14.293
REMARK INTRA:                  -4.062
REMARK UNBOUND:                -4.062
REMARK  Name = ligands_pdb/TRN_CHEMBL505768.pdb
REMARK  12 active torsions:
REMARK  status: ('A' for Active; 'I' for Inactive)
REMARK    1  A    between atoms: C2_2  and  C3_3
REMARK    2  A    between atoms: C9_9  and  C10_10
REMARK    3  A    between atoms: C18_19  and  C19_20
REMARK    4  A    between atoms: C19_20  and  O2_22
REMARK    5  A    between atoms: O2_22  and  C20_23
REMARK    6  A    between atoms: C20_23  and  C21_24
REMARK    7  A    between atoms: C21_24  and  C22_25
REMARK    8  A    between atoms: C22_25  and  O3_26
REMARK    9  A    between atoms: O3_26  and  C23_27
REMARK   10  A    between atoms: C23_27  and  C24_29
REMARK   11  A    between atoms: C28_36  and  C29_37
REMARK   12  A    between atoms: C37_45  and  C38_46
REMARK                            x       y       z     vdW  Elec       q    Type
REMARK                         _______ _______ _______ _____ _____    ______ ____
ROOT
ATOM      1  C21 T19     1      89.719 125.045 140.572  0.00  0.00    +0.082 C 
ENDROOT
BRANCH   1   2
ATOM      2  C20 T19     1      90.203 125.649 141.905  0.00  0.00    +0.236 C 
BRANCH   2   3
ATOM      3  O2  T19     1      91.161 126.689 141.630  0.00  0.00    -0.460 OA
BRANCH   3   4
ATOM      4  C19 T19     1      92.491 126.368 141.563  0.00  0.00    +0.360 C 
ATOM      5  O1  T19     1      92.990 125.529 142.295  0.00  0.00    -0.243 OA
BRANCH   4  16
ATOM      6  C3  T19     1      95.059 127.813 134.502  0.00  0.00    +0.025 A 
ATOM      7  C4  T19     1      94.605 128.960 135.169  0.00  0.00    +0.019 A 
ATOM      8  C5  T19     1      94.339 128.912 136.546  0.00  0.00    +0.028 A 
ATOM      9  C6  T19     1      94.526 127.715 137.262  0.00  0.00    +0.053 A 
ATOM     10  C7  T19     1      94.988 126.551 136.598  0.00  0.00    +0.006 A 
ATOM     11  C8  T19     1      95.247 126.618 135.215  0.00  0.00    +0.024 A 
ATOM     12  C9  T19     1      95.211 125.256 137.310  0.00  0.00    +0.116 C 
ATOM     13  N1  T19     1      94.286 124.692 138.022  0.00  0.00    -0.216 NA
ATOM     14  C16 T19     1      93.095 125.416 138.499  0.00  0.00    +0.160 C 
ATOM     15  C17 T19     1      93.512 126.704 139.167  0.00  0.00    +0.073 A 
ATOM     16  C18 T19     1      93.245 127.114 140.524  0.00  0.00    +0.170 A 
ATOM     17  N5  T19     1      93.788 128.327 140.740  0.00  0.00    -0.228 NA
ATOM     18  C43 T19     1      94.374 128.676 139.605  0.00  0.00    +0.205 A 
ATOM     19  N6  T19     1      94.245 127.709 138.628  0.00  0.00    -0.300 N 
BRANCH  12  20
ATOM     20  C10 T19     1      96.499 124.540 137.076  0.00  0.00    -0.019 A 
ATOM     21  C11 T19     1      97.682 124.950 137.726  0.00  0.00    +0.006 A 
ATOM     22  C12 T19     1      98.894 124.277 137.500  0.00  0.00    +0.000 A 
ATOM     23  C13 T19     1      98.938 123.185 136.618  0.00  0.00    +0.000 A 
ATOM     24  C14 T19     1      97.770 122.773 135.960  0.00  0.00    +0.000 A 
ATOM     25  C15 T19     1      96.559 123.447 136.186  0.00  0.00    +0.006 A 
ENDBRANCH  12  20
BRANCH   6  27
ATOM     26  C1  T19     1      95.551 127.886 131.898  0.00  0.00    +0.009 C 
ATOM     27  C2  T19     1      95.327 127.858 133.094  0.00  0.00    -0.070 C 
ENDBRANCH   6  27
ENDBRANCH   4  16
ENDBRANCH   3   4
ENDBRANCH   2   3
ENDBRANCH   1   2
BRANCH   1  28
ATOM     28  C22 T19     1      88.558 124.060 140.809  0.00  0.00    +0.236 C 
BRANCH  28  29
ATOM     29  O3  T19     1      88.749 122.900 139.977  0.00  0.00    -0.460 OA
BRANCH  29  30
ATOM     30  C23 T19     1      89.200 121.738 140.550  0.00  0.00    +0.360 C 
ATOM     31  O4  T19     1      88.654 121.240 141.522  0.00  0.00    -0.243 OA
BRANCH  30  32
ATOM     32  C24 T19     1      90.417 121.177 139.914  0.00  0.00    +0.170 A 
ATOM     33  N2  T19     1      90.378 120.249 138.944  0.00  0.00    -0.228 NA
ATOM     34  C25 T19     1      91.713 120.007 138.656  0.00  0.00    +0.205 A 
ATOM     35  N3  T19     1      92.521 120.801 139.425  0.00  0.00    -0.300 N 
ATOM     36  C26 T19     1      91.695 121.531 140.238  0.00  0.00    +0.073 A 
ATOM     37  C27 T19     1      92.306 122.479 141.251  0.00  0.00    +0.160 C 
ATOM     38  N4  T19     1      93.052 121.694 142.253  0.00  0.00    -0.216 NA
ATOM     39  C28 T19     1      93.975 120.830 141.958  0.00  0.00    +0.116 C 
ATOM     40  C35 T19     1      94.638 120.758 140.617  0.00  0.00    +0.006 A 
ATOM     41  C36 T19     1      96.046 120.723 140.556  0.00  0.00    +0.024 A 
ATOM     42  C37 T19     1      96.716 120.640 139.324  0.00  0.00    +0.025 A 
ATOM     43  C40 T19     1      95.980 120.595 138.129  0.00  0.00    +0.019 A 
ATOM     44  C41 T19     1      94.578 120.634 138.168  0.00  0.00    +0.028 A 
ATOM     45  C42 T19     1      93.907 120.705 139.404  0.00  0.00    +0.053 A 
BRANCH  39  46
ATOM     46  C29 T19     1      94.489 119.929 143.031  0.00  0.00    -0.019 A 
ATOM     47  C30 T19     1      95.064 118.684 142.704  0.00  0.00    +0.006 A 
ATOM     48  C31 T19     1      95.551 117.833 143.711  0.00  0.00    +0.000 A 
ATOM     49  C32 T19     1      95.465 118.218 145.057  0.00  0.00    +0.000 A 
ATOM     50  C33 T19     1      94.888 119.451 145.396  0.00  0.00    +0.000 A 
ATOM     51  C34 T19     1      94.401 120.301 144.389  0.00  0.00    +0.006 A 
ENDBRANCH  39  46
BRANCH  42  52
ATOM     52  C38 T19     1      98.149 120.611 139.286  0.00  0.00    -0.070 C 
ATOM     53  C39 T19     1      99.364 120.578 139.248  0.00  0.00    +0.009 C 
ENDBRANCH  42  52
ENDBRANCH  30  32
ENDBRANCH  29  30
ENDBRANCH  28  29
ENDBRANCH   1  28
TORSDOF 12
ENDMDL
MODEL 2
REMARK VINA RESULT:    -8.060      3.278     10.028
REMARK INTER + INTRA:         -17.776
REMARK INTER:                 -14.774
REMARK INTRA:                  -3.002
REMARK UNBOUND:                -4.062
REMARK  Name = ligands_pdb/TRN_CHEMBL505768.pdb
REMARK  12 active torsions:
REMARK  status: ('A' for Active; 'I' for Inactive)
REMARK    1  A    between atoms: C2_2  and  C3_3
REMARK    2  A    between atoms: C9_9  and  C10_10
REMARK    3  A    between atoms: C18_19  and  C19_20
REMARK    4  A    between atoms: C19_20  and  O2_22
REMARK    5  A    between atoms: O2_22  and  C20_23
REMARK    6  A    between atoms: C20_23  and  C21_24
REMARK    7  A    between atoms: C21_24  and  C22_25
REMARK    8  A    between atoms: C22_25  and  O3_26
REMARK    9  A    between atoms: O3_26  and  C23_27
REMARK   10  A    between atoms: C23_27  and  C24_29
REMARK   11  A    between atoms: C28_36  and  C29_37
REMARK   12  A    between atoms: C37_45  and  C38_46
REMARK                            x       y       z     vdW  Elec       q    Type
REMARK                         _______ _______ _______ _____ _____    ______ ____
ROOT
ATOM      1  C21 T19     1      98.276 123.962 136.710  0.00  0.00    +0.082 C 
ENDROOT
BRANCH   1   2
ATOM      2  C20 T19     1      98.181 122.659 135.894  0.00  0.00    +0.236 C 
BRANCH   2   3
ATOM      3  O2  T19     1      97.166 121.815 136.470  0.00  0.00    -0.460 OA
BRANCH   3   4
ATOM      4  C19 T19     1      97.541 120.659 137.102  0.00  0.00    +0.360 C 
ATOM      5  O1  T19     1      97.785 119.635 136.484  0.00  0.00    -0.243 OA
BRANCH   4  16
ATOM      6  C3  T19     1      96.157 118.662 144.357  0.00  0.00    +0.025 A 
ATOM      7  C4  T19     1      97.500 118.992 144.122  0.00  0.00    +0.019 A 
ATOM      8  C5  T19     1      97.870 119.614 142.921  0.00  0.00    +0.028 A 
ATOM      9  C6  T19     1      96.897 119.910 141.947  0.00  0.00    +0.053 A 
ATOM     10  C7  T19     1      95.537 119.585 142.176  0.00  0.00    +0.006 A 
ATOM     11  C8  T19     1      95.185 118.958 143.387  0.00  0.00    +0.024 A 
ATOM     12  C9  T19     1      94.462 119.883 141.181  0.00  0.00    +0.116 C 
ATOM     13  N1  T19     1      94.531 119.480 139.951  0.00  0.00    -0.216 NA
ATOM     14  C16 T19     1      95.788 119.034 139.327  0.00  0.00    +0.160 C 
ATOM     15  C17 T19     1      96.871 120.059 139.569  0.00  0.00    +0.073 A 
ATOM     16  C18 T19     1      97.636 120.776 138.579  0.00  0.00    +0.170 A 
ATOM     17  N5  T19     1      98.501 121.604 139.195  0.00  0.00    -0.228 NA
ATOM     18  C43 T19     1      98.304 121.442 140.495  0.00  0.00    +0.205 A 
ATOM     19  N6  T19     1      97.308 120.525 140.765  0.00  0.00    -0.300 N 
BRANCH  12  20
ATOM     20  C10 T19     1      93.220 120.550 141.669  0.00  0.00    -0.019 A 
ATOM     21  C11 T19     1      92.019 119.824 141.815  0.00  0.00    +0.006 A 
ATOM     22  C12 T19     1      90.851 120.456 142.271  0.00  0.00    +0.000 A 
ATOM     23  C13 T19     1      90.868 121.824 142.584  0.00  0.00    +0.000 A 
ATOM     24  C14 T19     1      92.054 122.559 142.435  0.00  0.00    +0.000 A 
ATOM     25  C15 T19     1      93.222 121.926 141.980  0.00  0.00    +0.006 A 
ENDBRANCH  12  20
BRANCH   6  27
ATOM     26  C1  T19     1      95.457 117.468 146.618  0.00  0.00    +0.009 C 
ATOM     27  C2  T19     1      95.777 118.022 145.583  0.00  0.00    -0.070 C 
ENDBRANCH   6  27
ENDBRANCH   4  16
ENDBRANCH   3   4
ENDBRANCH   2   3
ENDBRANCH   1   2
BRANCH   1  28
ATOM     28  C22 T19     1      96.929 124.283 137.388  0.00  0.00    +0.236 C 
BRANCH  28  29
ATOM     29  O3  T19     1      96.308 125.384 136.700  0.00  0.00    -0.460 OA
BRANCH  29  30
ATOM     30  C23 T19     1      94.956 125.348 136.472  0.00  0.00    +0.360 C 
ATOM     31  O4  T19     1      94.491 125.276 135.344  0.00  0.00    -0.243 OA
BRANCH  30  32
ATOM     32  C24 T19     1      94.127 125.444 137.698  0.00  0.00    +0.170 A 
ATOM     33  N2  T19     1      93.315 124.458 138.116  0.00  0.00    -0.228 NA
ATOM     34  C25 T19     1      92.736 124.966 139.268  0.00  0.00    +0.205 A 
ATOM     35  N3  T19     1      93.221 126.218 139.538  0.00  0.00    -0.300 N 
ATOM     36  C26 T19     1      94.091 126.528 138.527  0.00  0.00    +0.073 A 
ATOM     37  C27 T19     1      94.761 127.888 138.520  0.00  0.00    +0.160 C 
ATOM     38  N4  T19     1      93.733 128.927 138.323  0.00  0.00    -0.216 NA
ATOM     39  C28 T19     1      92.670 129.047 139.060  0.00  0.00    +0.116 C 
ATOM     40  C35 T19     1      92.513 128.380 140.392  0.00  0.00    +0.006 A 
ATOM     41  C36 T19     1      92.094 129.154 141.494  0.00  0.00    +0.024 A 
ATOM     42  C37 T19     1      91.917 128.573 142.761  0.00  0.00    +0.025 A 
ATOM     43  C40 T19     1      92.160 127.202 142.943  0.00  0.00    +0.019 A 
ATOM     44  C41 T19     1      92.581 126.416 141.860  0.00  0.00    +0.028 A 
ATOM     45  C42 T19     1      92.747 126.997 140.588  0.00  0.00    +0.053 A 
BRANCH  39  46
ATOM     46  C29 T19     1      91.590 129.979 138.623  0.00  0.00    -0.019 A 
ATOM     47  C30 T19     1      91.833 131.365 138.538  0.00  0.00    +0.006 A 
ATOM     48  C31 T19     1      90.819 132.246 138.124  0.00  0.00    +0.000 A 
ATOM     49  C32 T19     1      89.550 131.749 137.793  0.00  0.00    +0.000 A 
ATOM     50  C33 T19     1      89.293 130.372 137.881  0.00  0.00    +0.000 A 
ATOM     51  C34 T19     1      90.307 129.493 138.296  0.00  0.00    +0.006 A 
ENDBRANCH  39  46
BRANCH  42  52
ATOM     52  C38 T19     1      91.496 129.381 143.869  0.00  0.00    -0.070 C 
ATOM     53  C39 T19     1      91.145 130.075 144.803  0.00  0.00    +0.009 C 
ENDBRANCH  42  52
ENDBRANCH  30  32
ENDBRANCH  29  30
ENDBRANCH  28  29
ENDBRANCH   1  28
TORSDOF 12
ENDMDL
MODEL 3
REMARK VINA RESULT:    -8.043      2.982      8.810
REMARK INTER + INTRA:         -17.747
REMARK INTER:                 -13.146
REMARK INTRA:                  -4.602
REMARK UNBOUND:                -4.062
REMARK  Name = ligands_pdb/TRN_CHEMBL505768.pdb
REMARK  12 active torsions:
REMARK  status: ('A' for Active; 'I' for Inactive)
REMARK    1  A    between atoms: C2_2  and  C3_3
REMARK    2  A    between atoms: C9_9  and  C10_10
REMARK    3  A    between atoms: C18_19  and  C19_20
REMARK    4  A    between atoms: C19_20  and  O2_22
REMARK    5  A    between atoms: O2_22  and  C20_23
REMARK    6  A    between atoms: C20_23  and  C21_24
REMARK    7  A    between atoms: C21_24  and  C22_25
REMARK    8  A    between atoms: C22_25  and  O3_26
REMARK    9  A    between atoms: O3_26  and  C23_27
REMARK   10  A    between atoms: C23_27  and  C24_29
REMARK   11  A    between atoms: C28_36  and  C29_37
REMARK   12  A    between atoms: C37_45  and  C38_46
REMARK                            x       y       z     vdW  Elec       q    Type
REMARK                         _______ _______ _______ _____ _____    ______ ____
ROOT
ATOM      1  C21 T19     1      97.500 123.850 136.657  0.00  0.00    +0.082 C 
ENDROOT
BRANCH   1   2
ATOM      2  C20 T19     1      98.108 122.672 135.871  0.00  0.00    +0.236 C 
BRANCH   2   3
ATOM      3  O2  T19     1      99.124 122.044 136.676  0.00  0.00    -0.460 OA
BRANCH   3   4
ATOM      4  C19 T19     1      98.859 120.829 137.252  0.00  0.00    +0.360 C 
ATOM      5  O1  T19     1      99.024 119.779 136.652  0.00  0.00    -0.243 OA
BRANCH   4  16
ATOM      6  C3  T19     1      95.649 118.222 143.690  0.00  0.00    +0.025 A 
ATOM      7  C4  T19     1      96.818 118.964 143.917  0.00  0.00    +0.019 A 
ATOM      8  C5  T19     1      97.384 119.716 142.877  0.00  0.00    +0.028 A 
ATOM      9  C6  T19     1      96.784 119.730 141.604  0.00  0.00    +0.053 A 
ATOM     10  C7  T19     1      95.602 118.987 141.365  0.00  0.00    +0.006 A 
ATOM     11  C8  T19     1      95.049 118.235 142.420  0.00  0.00    +0.024 A 
ATOM     12  C9  T19     1      94.918 118.971 140.035  0.00  0.00    +0.116 C 
ATOM     13  N1  T19     1      95.544 118.658 138.943  0.00  0.00    -0.216 NA
ATOM     14  C16 T19     1      97.013 118.653 138.838  0.00  0.00    +0.160 C 
ATOM     15  C17 T19     1      97.567 119.955 139.365  0.00  0.00    +0.073 A 
ATOM     16  C18 T19     1      98.378 120.913 138.654  0.00  0.00    +0.170 A 
ATOM     17  N5  T19     1      98.667 121.946 139.469  0.00  0.00    -0.228 NA
ATOM     18  C43 T19     1      98.077 121.681 140.625  0.00  0.00    +0.205 A 
ATOM     19  N6  T19     1      97.383 120.488 140.597  0.00  0.00    -0.300 N 
BRANCH  12  20
ATOM     20  C10 T19     1      93.445 119.196 140.002  0.00  0.00    -0.019 A 
ATOM     21  C11 T19     1      92.894 120.266 139.264  0.00  0.00    +0.006 A 
ATOM     22  C12 T19     1      91.506 120.478 139.238  0.00  0.00    +0.000 A 
ATOM     23  C13 T19     1      90.650 119.625 139.952  0.00  0.00    +0.000 A 
ATOM     24  C14 T19     1      91.186 118.563 140.695  0.00  0.00    +0.000 A 
ATOM     25  C15 T19     1      92.574 118.351 140.721  0.00  0.00    +0.006 A 
ENDBRANCH  12  20
BRANCH   6  27
ATOM     26  C1  T19     1      94.587 116.796 145.656  0.00  0.00    +0.009 C 
ATOM     27  C2  T19     1      95.071 117.448 144.749  0.00  0.00    -0.070 C 
ENDBRANCH   6  27
ENDBRANCH   4  16
ENDBRANCH   3   4
ENDBRANCH   2   3
ENDBRANCH   1   2
BRANCH   1  28
ATOM     28  C22 T19     1      95.989 123.972 136.378  0.00  0.00    +0.236 C 
BRANCH  28  29
ATOM     29  O3  T19     1      95.639 125.367 136.294  0.00  0.00    -0.460 OA
BRANCH  29  30
ATOM     30  C23 T19     1      94.344 125.743 136.547  0.00  0.00    +0.360 C 
ATOM     31  O4  T19     1      93.461 125.633 135.710  0.00  0.00    -0.243 OA
BRANCH  30  32
ATOM     32  C24 T19     1      94.130 126.324 137.895  0.00  0.00    +0.170 A 
ATOM     33  N2  T19     1      95.023 127.125 138.500  0.00  0.00    -0.228 NA
ATOM     34  C25 T19     1      94.436 127.421 139.721  0.00  0.00    +0.205 A 
ATOM     35  N3  T19     1      93.207 126.826 139.819  0.00  0.00    -0.300 N 
ATOM     36  C26 T19     1      93.023 126.112 138.664  0.00  0.00    +0.073 A 
ATOM     37  C27 T19     1      91.757 125.294 138.496  0.00  0.00    +0.160 C 
ATOM     38  N4  T19     1      91.754 124.207 139.492  0.00  0.00    -0.216 NA
ATOM     39  C28 T19     1      91.903 124.390 140.769  0.00  0.00    +0.116 C 
ATOM     40  C35 T19     1      91.759 125.726 141.431  0.00  0.00    +0.006 A 
ATOM     41  C36 T19     1      90.932 125.835 142.568  0.00  0.00    +0.024 A 
ATOM     42  C37 T19     1      90.776 127.062 143.235  0.00  0.00    +0.025 A 
ATOM     43  C40 T19     1      91.446 128.204 142.766  0.00  0.00    +0.019 A 
ATOM     44  C41 T19     1      92.269 128.117 141.634  0.00  0.00    +0.028 A 
ATOM     45  C42 T19     1      92.435 126.884 140.973  0.00  0.00    +0.053 A 
BRANCH  39  46
ATOM     46  C29 T19     1      92.121 123.205 141.648  0.00  0.00    -0.019 A 
ATOM     47  C30 T19     1      91.023 122.513 142.200  0.00  0.00    +0.006 A 
ATOM     48  C31 T19     1      91.224 121.394 143.026  0.00  0.00    +0.000 A 
ATOM     49  C32 T19     1      92.526 120.957 143.313  0.00  0.00    +0.000 A 
ATOM     50  C33 T19     1      93.627 121.641 142.776  0.00  0.00    +0.000 A 
ATOM     51  C34 T19     1      93.425 122.760 141.950  0.00  0.00    +0.006 A 
ENDBRANCH  39  46
BRANCH  42  52
ATOM     52  C38 T19     1      89.925 127.150 144.386  0.00  0.00    -0.070 C 
ATOM     53  C39 T19     1      89.210 127.217 145.366  0.00  0.00    +0.009 C 
ENDBRANCH  42  52
ENDBRANCH  30  32
ENDBRANCH  29  30
ENDBRANCH  28  29
ENDBRANCH   1  28
TORSDOF 12
ENDMDL
MODEL 4
REMARK VINA RESULT:    -8.001      1.696      8.039
REMARK INTER + INTRA:         -17.675
REMARK INTER:                 -13.937
REMARK INTRA:                  -3.738
REMARK UNBOUND:                -4.062
REMARK  Name = ligands_pdb/TRN_CHEMBL505768.pdb
REMARK  12 active torsions:
REMARK  status: ('A' for Active; 'I' for Inactive)
REMARK    1  A    between atoms: C2_2  and  C3_3
REMARK    2  A    between atoms: C9_9  and  C10_10
REMARK    3  A    between atoms: C18_19  and  C19_20
REMARK    4  A    between atoms: C19_20  and  O2_22
REMARK    5  A    between atoms: O2_22  and  C20_23
REMARK    6  A    between atoms: C20_23  and  C21_24
REMARK    7  A    between atoms: C21_24  and  C22_25
REMARK    8  A    between atoms: C22_25  and  O3_26
REMARK    9  A    between atoms: O3_26  and  C23_27
REMARK   10  A    between atoms: C23_27  and  C24_29
REMARK   11  A    between atoms: C28_36  and  C29_37
REMARK   12  A    between atoms: C37_45  and  C38_46
REMARK                            x       y       z     vdW  Elec       q    Type
REMARK                         _______ _______ _______ _____ _____    ______ ____
ROOT
ATOM      1  C21 T19     1      89.984 122.613 140.986  0.00  0.00    +0.082 C 
ENDROOT
BRANCH   1   2
ATOM      2  C20 T19     1      89.500 122.492 139.528  0.00  0.00    +0.236 C 
BRANCH   2   3
ATOM      3  O2  T19     1      90.635 122.257 138.673  0.00  0.00    -0.460 OA
BRANCH   3   4
ATOM      4  C19 T19     1      90.794 121.021 138.103  0.00  0.00    +0.360 C 
ATOM      5  O1  T19     1      90.284 120.733 137.032  0.00  0.00    -0.243 OA
BRANCH   4  16
ATOM      6  C3  T19     1      96.475 119.102 142.855  0.00  0.00    +0.025 A 
ATOM      7  C4  T19     1      95.273 118.435 143.135  0.00  0.00    +0.019 A 
ATOM      8  C5  T19     1      94.215 118.482 142.215  0.00  0.00    +0.028 A 
ATOM      9  C6  T19     1      94.354 119.197 141.011  0.00  0.00    +0.053 A 
ATOM     10  C7  T19     1      95.565 119.872 140.717  0.00  0.00    +0.006 A 
ATOM     11  C8  T19     1      96.616 119.816 141.654  0.00  0.00    +0.024 A 
ATOM     12  C9  T19     1      95.771 120.640 139.452  0.00  0.00    +0.116 C 
ATOM     13  N1  T19     1      94.956 121.575 139.073  0.00  0.00    -0.216 NA
ATOM     14  C16 T19     1      93.598 121.721 139.624  0.00  0.00    +0.160 C 
ATOM     15  C17 T19     1      92.879 120.393 139.571  0.00  0.00    +0.073 A 
ATOM     16  C18 T19     1      91.643 120.093 138.891  0.00  0.00    +0.170 A 
ATOM     17  N5  T19     1      91.334 118.795 139.078  0.00  0.00    -0.228 NA
ATOM     18  C43 T19     1      92.307 118.288 139.820  0.00  0.00    +0.205 A 
ATOM     19  N6  T19     1      93.276 119.222 140.126  0.00  0.00    -0.300 N 
BRANCH  12  20
ATOM     20  C10 T19     1      97.025 120.400 138.681  0.00  0.00    -0.019 A 
ATOM     21  C11 T19     1      96.993 119.729 137.440  0.00  0.00    +0.006 A 
ATOM     22  C12 T19     1      98.176 119.501 136.719  0.00  0.00    +0.000 A 
ATOM     23  C13 T19     1      99.408 119.938 137.231  0.00  0.00    +0.000 A 
ATOM     24  C14 T19     1      99.454 120.599 138.468  0.00  0.00    +0.000 A 
ATOM     25  C15 T19     1      98.270 120.827 139.189  0.00  0.00    +0.006 A 
ENDBRANCH  12  20
BRANCH   6  27
ATOM     26  C1  T19     1      98.471 119.035 144.598  0.00  0.00    +0.009 C 
ATOM     27  C2  T19     1      97.557 119.060 143.796  0.00  0.00    -0.070 C 
ENDBRANCH   6  27
ENDBRANCH   4  16
ENDBRANCH   3   4
ENDBRANCH   2   3
ENDBRANCH   1   2
BRANCH   1  28
ATOM     28  C22 T19     1      90.023 124.088 141.429  0.00  0.00    +0.236 C 
BRANCH  28  29
ATOM     29  O3  T19     1      91.248 124.686 140.964  0.00  0.00    -0.460 OA
BRANCH  29  30
ATOM     30  C23 T19     1      91.255 126.018 140.636  0.00  0.00    +0.360 C 
ATOM     31  O4  T19     1      91.066 126.891 141.469  0.00  0.00    -0.243 OA
BRANCH  30  32
ATOM     32  C24 T19     1      91.469 126.290 139.194  0.00  0.00    +0.170 A 
ATOM     33  N2  T19     1      90.575 125.967 138.244  0.00  0.00    -0.228 NA
ATOM     34  C25 T19     1      91.174 126.381 137.064  0.00  0.00    +0.205 A 
ATOM     35  N3  T19     1      92.386 126.964 137.320  0.00  0.00    -0.300 N 
ATOM     36  C26 T19     1      92.581 126.888 138.673  0.00  0.00    +0.073 A 
ATOM     37  C27 T19     1      93.875 127.413 139.264  0.00  0.00    +0.160 C 
ATOM     38  N4  T19     1      94.993 126.583 138.780  0.00  0.00    -0.216 NA
ATOM     39  C28 T19     1      95.234 126.347 137.526  0.00  0.00    +0.116 C 
ATOM     40  C35 T19     1      94.631 127.142 136.408  0.00  0.00    +0.006 A 
ATOM     41  C36 T19     1      95.478 127.646 135.400  0.00  0.00    +0.024 A 
ATOM     42  C37 T19     1      94.961 128.384 134.322  0.00  0.00    +0.025 A 
ATOM     43  C40 T19     1      93.581 128.632 134.242  0.00  0.00    +0.019 A 
ATOM     44  C41 T19     1      92.723 128.143 135.237  0.00  0.00    +0.028 A 
ATOM     45  C42 T19     1      93.241 127.393 136.311  0.00  0.00    +0.053 A 
BRANCH  39  46
ATOM     46  C29 T19     1      96.242 125.307 137.168  0.00  0.00    -0.019 A 
ATOM     47  C30 T19     1      97.572 125.414 137.623  0.00  0.00    +0.006 A 
ATOM     48  C31 T19     1      98.524 124.436 137.289  0.00  0.00    +0.000 A 
ATOM     49  C32 T19     1      98.156 123.340 136.494  0.00  0.00    +0.000 A 
ATOM     50  C33 T19     1      96.838 123.226 136.029  0.00  0.00    +0.000 A 
ATOM     51  C34 T19     1      95.887 124.205 136.362  0.00  0.00    +0.006 A 
ENDBRANCH  39  46
BRANCH  42  52
ATOM     52  C38 T19     1      95.843 128.892 133.311  0.00  0.00    -0.070 C 
ATOM     53  C39 T19     1      96.582 129.328 132.450  0.00  0.00    +0.009 C 
ENDBRANCH  42  52
ENDBRANCH  30  32
ENDBRANCH  29  30
ENDBRANCH  28  29
ENDBRANCH   1  28
TORSDOF 12
ENDMDL
MODEL 5
REMARK VINA RESULT:    -7.836      1.811      7.985
REMARK INTER + INTRA:         -17.395
REMARK INTER:                 -14.520
REMARK INTRA:                  -2.875
REMARK UNBOUND:                -4.062
REMARK  Name = ligands_pdb/TRN_CHEMBL505768.pdb
REMARK  12 active torsions:
REMARK  status: ('A' for Active; 'I' for Inactive)
REMARK    1  A    between atoms: C2_2  and  C3_3
REMARK    2  A    between atoms: C9_9  and  C10_10
REMARK    3  A    between atoms: C18_19  and  C19_20
REMARK    4  A    between atoms: C19_20  and  O2_22
REMARK    5  A    between atoms: O2_22  and  C20_23
REMARK    6  A    between atoms: C20_23  and  C21_24
REMARK    7  A    between atoms: C21_24  and  C22_25
REMARK    8  A    between atoms: C22_25  and  O3_26
REMARK    9  A    between atoms: O3_26  and  C23_27
REMARK   10  A    between atoms: C23_27  and  C24_29
REMARK   11  A    between atoms: C28_36  and  C29_37
REMARK   12  A    between atoms: C37_45  and  C38_46
REMARK                            x       y       z     vdW  Elec       q    Type
REMARK                         _______ _______ _______ _____ _____    ______ ____
ROOT
ATOM      1  C21 T19     1      90.716 122.111 141.810  0.00  0.00    +0.082 C 
ENDROOT
BRANCH   1   2
ATOM      2  C20 T19     1      90.234 120.758 141.251  0.00  0.00    +0.236 C 
BRANCH   2   3
ATOM      3  O2  T19     1      90.085 120.865 139.822  0.00  0.00    -0.460 OA
BRANCH   3   4
ATOM      4  C19 T19     1      90.855 120.073 139.012  0.00  0.00    +0.360 C 
ATOM      5  O1  T19     1      90.395 119.103 138.430  0.00  0.00    -0.243 OA
BRANCH   4  16
ATOM      6  C3  T19     1      98.442 119.119 138.739  0.00  0.00    +0.025 A 
ATOM      7  C4  T19     1      97.963 120.014 137.771  0.00  0.00    +0.019 A 
ATOM      8  C5  T19     1      96.645 120.488 137.845  0.00  0.00    +0.028 A 
ATOM      9  C6  T19     1      95.799 120.070 138.889  0.00  0.00    +0.053 A 
ATOM     10  C7  T19     1      96.274 119.169 139.874  0.00  0.00    +0.006 A 
ATOM     11  C8  T19     1      97.599 118.700 139.782  0.00  0.00    +0.024 A 
ATOM     12  C9  T19     1      95.422 118.696 141.008  0.00  0.00    +0.116 C 
ATOM     13  N1  T19     1      94.262 118.148 140.816  0.00  0.00    -0.216 NA
ATOM     14  C16 T19     1      93.523 118.267 139.548  0.00  0.00    +0.160 C 
ATOM     15  C17 T19     1      93.454 119.717 139.131  0.00  0.00    +0.073 A 
ATOM     16  C18 T19     1      92.270 120.508 138.902  0.00  0.00    +0.170 A 
ATOM     17  N5  T19     1      92.628 121.757 138.547  0.00  0.00    -0.228 NA
ATOM     18  C43 T19     1      93.953 121.777 138.555  0.00  0.00    +0.205 A 
ATOM     19  N6  T19     1      94.494 120.561 138.922  0.00  0.00    -0.300 N 
BRANCH  12  20
ATOM     20  C10 T19     1      95.995 118.746 142.384  0.00  0.00    -0.019 A 
ATOM     21  C11 T19     1      97.298 119.238 142.606  0.00  0.00    +0.006 A 
ATOM     22  C12 T19     1      97.837 119.280 143.902  0.00  0.00    +0.000 A 
ATOM     23  C13 T19     1      97.080 118.826 144.994  0.00  0.00    +0.000 A 
ATOM     24  C14 T19     1      95.785 118.327 144.785  0.00  0.00    +0.000 A 
ATOM     25  C15 T19     1      95.247 118.285 143.488  0.00  0.00    +0.006 A 
ENDBRANCH  12  20
BRANCH   6  27
ATOM     26  C1  T19     1     100.931 118.221 138.591  0.00  0.00    +0.009 C 
ATOM     27  C2  T19     1      99.788 118.629 138.663  0.00  0.00    -0.070 C 
ENDBRANCH   6  27
ENDBRANCH   4  16
ENDBRANCH   3   4
ENDBRANCH   2   3
ENDBRANCH   1   2
BRANCH   1  28
ATOM     28  C22 T19     1      90.173 123.278 140.961  0.00  0.00    +0.236 C 
BRANCH  28  29
ATOM     29  O3  T19     1      91.273 124.110 140.548  0.00  0.00    -0.460 OA
BRANCH  29  30
ATOM     30  C23 T19     1      91.032 125.422 140.228  0.00  0.00    +0.360 C 
ATOM     31  O4  T19     1      90.571 126.212 141.038  0.00  0.00    -0.243 OA
BRANCH  30  32
ATOM     32  C24 T19     1      91.337 125.772 138.820  0.00  0.00    +0.170 A 
ATOM     33  N2  T19     1      90.548 125.426 137.789  0.00  0.00    -0.228 NA
ATOM     34  C25 T19     1      91.204 125.934 136.678  0.00  0.00    +0.205 A 
ATOM     35  N3  T19     1      92.343 126.593 137.054  0.00  0.00    -0.300 N 
ATOM     36  C26 T19     1      92.436 126.472 138.415  0.00  0.00    +0.073 A 
ATOM     37  C27 T19     1      93.636 127.065 139.129  0.00  0.00    +0.160 C 
ATOM     38  N4  T19     1      94.850 126.342 138.708  0.00  0.00    -0.216 NA
ATOM     39  C28 T19     1      95.206 126.179 137.469  0.00  0.00    +0.116 C 
ATOM     40  C35 T19     1      94.634 126.976 136.337  0.00  0.00    +0.006 A 
ATOM     41  C36 T19     1      95.516 127.585 135.421  0.00  0.00    +0.024 A 
ATOM     42  C37 T19     1      95.030 128.330 134.334  0.00  0.00    +0.025 A 
ATOM     43  C40 T19     1      93.646 128.479 134.150  0.00  0.00    +0.019 A 
ATOM     44  C41 T19     1      92.752 127.884 135.052  0.00  0.00    +0.028 A 
ATOM     45  C42 T19     1      93.240 127.128 136.136  0.00  0.00    +0.053 A 
BRANCH  39  46
ATOM     46  C29 T19     1      96.316 125.233 137.156  0.00  0.00    -0.019 A 
ATOM     47  C30 T19     1      97.570 125.369 137.786  0.00  0.00    +0.006 A 
ATOM     48  C31 T19     1      98.618 124.479 137.496  0.00  0.00    +0.000 A 
ATOM     49  C32 T19     1      98.423 123.444 136.568  0.00  0.00    +0.000 A 
ATOM     50  C33 T19     1      97.183 123.303 135.928  0.00  0.00    +0.000 A 
ATOM     51  C34 T19     1      96.136 124.194 136.220  0.00  0.00    +0.006 A 
ENDBRANCH  39  46
BRANCH  42  52
ATOM     52  C38 T19     1      95.947 128.946 133.419  0.00  0.00    -0.070 C 
ATOM     53  C39 T19     1      96.717 129.474 132.640  0.00  0.00    +0.009 C 
ENDBRANCH  42  52
ENDBRANCH  30  32
ENDBRANCH  29  30
ENDBRANCH  28  29
ENDBRANCH   1  28
TORSDOF 12
ENDMDL
MODEL 6
REMARK VINA RESULT:    -7.759      3.201      9.507
REMARK INTER + INTRA:         -17.263
REMARK INTER:                 -13.789
REMARK INTRA:                  -3.474
REMARK UNBOUND:                -4.062
REMARK  Name = ligands_pdb/TRN_CHEMBL505768.pdb
REMARK  12 active torsions:
REMARK  status: ('A' for Active; 'I' for Inactive)
REMARK    1  A    between atoms: C2_2  and  C3_3
REMARK    2  A    between atoms: C9_9  and  C10_10
REMARK    3  A    between atoms: C18_19  and  C19_20
REMARK    4  A    between atoms: C19_20  and  O2_22
REMARK    5  A    between atoms: O2_22  and  C20_23
REMARK    6  A    between atoms: C20_23  and  C21_24
REMARK    7  A    between atoms: C21_24  and  C22_25
REMARK    8  A    between atoms: C22_25  and  O3_26
REMARK    9  A    between atoms: O3_26  and  C23_27
REMARK   10  A    between atoms: C23_27  and  C24_29
REMARK   11  A    between atoms: C28_36  and  C29_37
REMARK   12  A    between atoms: C37_45  and  C38_46
REMARK                            x       y       z     vdW  Elec       q    Type
REMARK                         _______ _______ _______ _____ _____    ______ ____
ROOT
ATOM      1  C21 T19     1      97.578 123.435 136.453  0.00  0.00    +0.082 C 
ENDROOT
BRANCH   1   2
ATOM      2  C20 T19     1      98.328 122.213 135.887  0.00  0.00    +0.236 C 
BRANCH   2   3
ATOM      3  O2  T19     1      97.624 121.014 136.263  0.00  0.00    -0.460 OA
BRANCH   3   4
ATOM      4  C19 T19     1      98.271 120.073 137.021  0.00  0.00    +0.360 C 
ATOM      5  O1  T19     1      98.857 119.129 136.516  0.00  0.00    -0.243 OA
BRANCH   4  16
ATOM      6  C3  T19     1      96.230 118.607 144.248  0.00  0.00    +0.025 A 
ATOM      7  C4  T19     1      97.572 118.996 144.122  0.00  0.00    +0.019 A 
ATOM      8  C5  T19     1      98.034 119.537 142.913  0.00  0.00    +0.028 A 
ATOM      9  C6  T19     1      97.157 119.692 141.824  0.00  0.00    +0.053 A 
ATOM     10  C7  T19     1      95.798 119.306 141.942  0.00  0.00    +0.006 A 
ATOM     11  C8  T19     1      95.352 118.762 143.162  0.00  0.00    +0.024 A 
ATOM     12  C9  T19     1      94.820 119.455 140.821  0.00  0.00    +0.116 C 
ATOM     13  N1  T19     1      95.040 118.956 139.644  0.00  0.00    -0.216 NA
ATOM     14  C16 T19     1      96.377 118.536 139.193  0.00  0.00    +0.160 C 
ATOM     15  C17 T19     1      97.374 119.641 139.451  0.00  0.00    +0.073 A 
ATOM     16  C18 T19     1      98.202 120.318 138.483  0.00  0.00    +0.170 A 
ATOM     17  N5  T19     1      98.954 121.244 139.108  0.00  0.00    -0.228 NA
ATOM     18  C43 T19     1      98.629 121.180 140.391  0.00  0.00    +0.205 A 
ATOM     19  N6  T19     1      97.658 120.230 140.639  0.00  0.00    -0.300 N 
BRANCH  12  20
ATOM     20  C10 T19     1      93.502 120.085 141.120  0.00  0.00    -0.019 A 
ATOM     21  C11 T19     1      92.298 119.386 140.889  0.00  0.00    +0.006 A 
ATOM     22  C12 T19     1      91.058 119.983 141.168  0.00  0.00    +0.000 A 
ATOM     23  C13 T19     1      91.005 121.290 141.677  0.00  0.00    +0.000 A 
ATOM     24  C14 T19     1      92.195 121.999 141.903  0.00  0.00    +0.000 A 
ATOM     25  C15 T19     1      93.435 121.401 141.625  0.00  0.00    +0.006 A 
ENDBRANCH  12  20
BRANCH   6  27
ATOM     26  C1  T19     1      95.355 117.586 146.532  0.00  0.00    +0.009 C 
ATOM     27  C2  T19     1      95.755 118.049 145.481  0.00  0.00    -0.070 C 
ENDBRANCH   6  27
ENDBRANCH   4  16
ENDBRANCH   3   4
ENDBRANCH   2   3
ENDBRANCH   1   2
BRANCH   1  28
ATOM     28  C22 T19     1      96.164 123.040 136.922  0.00  0.00    +0.236 C 
BRANCH  28  29
ATOM     29  O3  T19     1      95.615 124.111 137.712  0.00  0.00    -0.460 OA
BRANCH  29  30
ATOM     30  C23 T19     1      94.802 125.035 137.106  0.00  0.00    +0.360 C 
ATOM     31  O4  T19     1      94.451 124.924 135.941  0.00  0.00    -0.243 OA
BRANCH  30  32
ATOM     32  C24 T19     1      94.431 126.182 137.971  0.00  0.00    +0.170 A 
ATOM     33  N2  T19     1      95.336 126.965 138.580  0.00  0.00    -0.228 NA
ATOM     34  C25 T19     1      94.568 127.883 139.281  0.00  0.00    +0.205 A 
ATOM     35  N3  T19     1      93.236 127.659 139.063  0.00  0.00    -0.300 N 
ATOM     36  C26 T19     1      93.150 126.564 138.245  0.00  0.00    +0.073 A 
ATOM     37  C27 T19     1      91.782 126.035 137.860  0.00  0.00    +0.160 C 
ATOM     38  N4  T19     1      91.108 125.525 139.069  0.00  0.00    -0.216 NA
ATOM     39  C28 T19     1      90.940 126.218 140.154  0.00  0.00    +0.116 C 
ATOM     40  C35 T19     1      91.094 127.708 140.212  0.00  0.00    +0.006 A 
ATOM     41  C36 T19     1      90.071 128.474 140.807  0.00  0.00    +0.024 A 
ATOM     42  C37 T19     1      90.175 129.872 140.900  0.00  0.00    +0.025 A 
ATOM     43  C40 T19     1      91.310 130.525 140.392  0.00  0.00    +0.019 A 
ATOM     44  C41 T19     1      92.337 129.780 139.794  0.00  0.00    +0.028 A 
ATOM     45  C42 T19     1      92.237 128.378 139.711  0.00  0.00    +0.053 A 
BRANCH  39  46
ATOM     46  C29 T19     1      90.462 125.526 141.386  0.00  0.00    -0.019 A 
ATOM     47  C30 T19     1      89.263 124.783 141.369  0.00  0.00    +0.006 A 
ATOM     48  C31 T19     1      88.811 124.127 142.527  0.00  0.00    +0.000 A 
ATOM     49  C32 T19     1      89.550 124.210 143.716  0.00  0.00    +0.000 A 
ATOM     50  C33 T19     1      90.740 124.953 143.748  0.00  0.00    +0.000 A 
ATOM     51  C34 T19     1      91.192 125.608 142.590  0.00  0.00    +0.006 A 
ENDBRANCH  39  46
BRANCH  42  52
ATOM     52  C38 T19     1      89.119 130.632 141.503  0.00  0.00    -0.070 C 
ATOM     53  C39 T19     1      88.228 131.284 142.011  0.00  0.00    +0.009 C 
ENDBRANCH  42  52
ENDBRANCH  30  32
ENDBRANCH  29  30
ENDBRANCH  28  29
ENDBRANCH   1  28
TORSDOF 12
ENDMDL
MODEL 7
REMARK VINA RESULT:    -7.719      1.563      8.584
REMARK INTER + INTRA:         -17.196
REMARK INTER:                 -14.120
REMARK INTRA:                  -3.076
REMARK UNBOUND:                -4.062
REMARK  Name = ligands_pdb/TRN_CHEMBL505768.pdb
REMARK  12 active torsions:
REMARK  status: ('A' for Active; 'I' for Inactive)
REMARK    1  A    between atoms: C2_2  and  C3_3
REMARK    2  A    between atoms: C9_9  and  C10_10
REMARK    3  A    between atoms: C18_19  and  C19_20
REMARK    4  A    between atoms: C19_20  and  O2_22
REMARK    5  A    between atoms: O2_22  and  C20_23
REMARK    6  A    between atoms: C20_23  and  C21_24
REMARK    7  A    between atoms: C21_24  and  C22_25
REMARK    8  A    between atoms: C22_25  and  O3_26
REMARK    9  A    between atoms: O3_26  and  C23_27
REMARK   10  A    between atoms: C23_27  and  C24_29
REMARK   11  A    between atoms: C28_36  and  C29_37
REMARK   12  A    between atoms: C37_45  and  C38_46
REMARK                            x       y       z     vdW  Elec       q    Type
REMARK                         _______ _______ _______ _____ _____    ______ ____
ROOT
ATOM      1  C21 T19     1      90.110 124.816 142.383  0.00  0.00    +0.082 C 
ENDROOT
BRANCH   1   2
ATOM      2  C20 T19     1      89.834 124.812 140.867  0.00  0.00    +0.236 C 
BRANCH   2   3
ATOM      3  O2  T19     1      89.266 123.542 140.496  0.00  0.00    -0.460 OA
BRANCH   3   4
ATOM      4  C19 T19     1      90.045 122.634 139.827  0.00  0.00    +0.360 C 
ATOM      5  O1  T19     1      90.325 122.769 138.646  0.00  0.00    -0.243 OA
BRANCH   4  16
ATOM      6  C3  T19     1      94.547 119.150 144.939  0.00  0.00    +0.025 A 
ATOM      7  C4  T19     1      93.183 118.884 145.133  0.00  0.00    +0.019 A 
ATOM      8  C5  T19     1      92.253 119.237 144.145  0.00  0.00    +0.028 A 
ATOM      9  C6  T19     1      92.681 119.858 142.957  0.00  0.00    +0.053 A 
ATOM     10  C7  T19     1      94.057 120.128 142.749  0.00  0.00    +0.006 A 
ATOM     11  C8  T19     1      94.977 119.769 143.754  0.00  0.00    +0.024 A 
ATOM     12  C9  T19     1      94.569 120.778 141.504  0.00  0.00    +0.116 C 
ATOM     13  N1  T19     1      94.105 121.911 141.077  0.00  0.00    -0.216 NA
ATOM     14  C16 T19     1      92.822 122.471 141.537  0.00  0.00    +0.160 C 
ATOM     15  C17 T19     1      91.739 121.424 141.428  0.00  0.00    +0.073 A 
ATOM     16  C18 T19     1      90.517 121.504 140.665  0.00  0.00    +0.170 A 
ATOM     17  N5  T19     1      89.816 120.365 140.824  0.00  0.00    -0.228 NA
ATOM     18  C43 T19     1      90.537 119.596 141.626  0.00  0.00    +0.205 A 
ATOM     19  N6  T19     1      91.723 120.197 142.002  0.00  0.00    -0.300 N 
BRANCH  12  20
ATOM     20  C10 T19     1      95.739 120.156 140.819  0.00  0.00    -0.019 A 
ATOM     21  C11 T19     1      95.608 118.926 140.140  0.00  0.00    +0.006 A 
ATOM     22  C12 T19     1      96.712 118.341 139.499  0.00  0.00    +0.000 A 
ATOM     23  C13 T19     1      97.963 118.977 139.530  0.00  0.00    +0.000 A 
ATOM     24  C14 T19     1      98.107 120.197 140.209  0.00  0.00    +0.000 A 
ATOM     25  C15 T19     1      97.003 120.782 140.850  0.00  0.00    +0.006 A 
ENDBRANCH  12  20
BRANCH   6  27
ATOM     26  C1  T19     1      96.316 118.489 146.800  0.00  0.00    +0.009 C 
ATOM     27  C2  T19     1      95.500 118.795 145.950  0.00  0.00    -0.070 C 
ENDBRANCH   6  27
ENDBRANCH   4  16
ENDBRANCH   3   4
ENDBRANCH   2   3
ENDBRANCH   1   2
BRANCH   1  28
ATOM     28  C22 T19     1      90.788 126.133 142.812  0.00  0.00    +0.236 C 
BRANCH  28  29
ATOM     29  O3  T19     1      91.881 126.411 141.916  0.00  0.00    -0.460 OA
BRANCH  29  30
ATOM     30  C23 T19     1      92.127 127.710 141.551  0.00  0.00    +0.360 C 
ATOM     31  O4  T19     1      92.272 128.599 142.377  0.00  0.00    -0.243 OA
BRANCH  30  32
ATOM     32  C24 T19     1      92.159 127.937 140.086  0.00  0.00    +0.170 A 
ATOM     33  N2  T19     1      91.060 127.910 139.314  0.00  0.00    -0.228 NA
ATOM     34  C25 T19     1      91.540 128.154 138.036  0.00  0.00    +0.205 A 
ATOM     35  N3  T19     1      92.895 128.349 138.063  0.00  0.00    -0.300 N 
ATOM     36  C26 T19     1      93.289 128.191 139.365  0.00  0.00    +0.073 A 
ATOM     37  C27 T19     1      94.763 128.301 139.708  0.00  0.00    +0.160 C 
ATOM     38  N4  T19     1      95.488 127.188 139.067  0.00  0.00    -0.216 NA
ATOM     39  C28 T19     1      95.428 126.917 137.798  0.00  0.00    +0.116 C 
ATOM     40  C35 T19     1      94.902 127.877 136.775  0.00  0.00    +0.006 A 
ATOM     41  C36 T19     1      95.672 128.130 135.622  0.00  0.00    +0.024 A 
ATOM     42  C37 T19     1      95.216 129.009 134.625  0.00  0.00    +0.025 A 
ATOM     43  C40 T19     1      93.977 129.653 134.774  0.00  0.00    +0.019 A 
ATOM     44  C41 T19     1      93.198 129.418 135.916  0.00  0.00    +0.028 A 
ATOM     45  C42 T19     1      93.651 128.527 136.909  0.00  0.00    +0.053 A 
BRANCH  39  46
ATOM     46  C29 T19     1      96.009 125.634 137.306  0.00  0.00    -0.019 A 
ATOM     47  C30 T19     1      95.189 124.670 136.685  0.00  0.00    +0.006 A 
ATOM     48  C31 T19     1      95.733 123.461 136.219  0.00  0.00    +0.000 A 
ATOM     49  C32 T19     1      97.103 123.202 136.371  0.00  0.00    +0.000 A 
ATOM     50  C33 T19     1      97.928 124.150 136.994  0.00  0.00    +0.000 A 
ATOM     51  C34 T19     1      97.384 125.358 137.461  0.00  0.00    +0.006 A 
ENDBRANCH  39  46
BRANCH  42  52
ATOM     52  C38 T19     1      96.019 129.256 133.463  0.00  0.00    -0.070 C 
ATOM     53  C39 T19     1      96.691 129.467 132.473  0.00  0.00    +0.009 C 
ENDBRANCH  42  52
ENDBRANCH  30  32
ENDBRANCH  29  30
ENDBRANCH  28  29
ENDBRANCH   1  28
TORSDOF 12
ENDMDL
MODEL 8
REMARK VINA RESULT:    -7.702      2.956      6.303
REMARK INTER + INTRA:         -17.167
REMARK INTER:                 -14.908
REMARK INTRA:                  -2.259
REMARK UNBOUND:                -4.062
REMARK  Name = ligands_pdb/TRN_CHEMBL505768.pdb
REMARK  12 active torsions:
REMARK  status: ('A' for Active; 'I' for Inactive)
REMARK    1  A    between atoms: C2_2  and  C3_3
REMARK    2  A    between atoms: C9_9  and  C10_10
REMARK    3  A    between atoms: C18_19  and  C19_20
REMARK    4  A    between atoms: C19_20  and  O2_22
REMARK    5  A    between atoms: O2_22  and  C20_23
REMARK    6  A    between atoms: C20_23  and  C21_24
REMARK    7  A    between atoms: C21_24  and  C22_25
REMARK    8  A    between atoms: C22_25  and  O3_26
REMARK    9  A    between atoms: O3_26  and  C23_27
REMARK   10  A    between atoms: C23_27  and  C24_29
REMARK   11  A    between atoms: C28_36  and  C29_37
REMARK   12  A    between atoms: C37_45  and  C38_46
REMARK                            x       y       z     vdW  Elec       q    Type
REMARK                         _______ _______ _______ _____ _____    ______ ____
ROOT
ATOM      1  C21 T19     1      98.001 123.475 137.036  0.00  0.00    +0.082 C 
ENDROOT
BRANCH   1   2
ATOM      2  C20 T19     1      97.345 124.852 137.259  0.00  0.00    +0.236 C 
BRANCH   2   3
ATOM      3  O2  T19     1      95.916 124.688 137.328  0.00  0.00    -0.460 OA
BRANCH   3   4
ATOM      4  C19 T19     1      95.171 124.868 136.193  0.00  0.00    +0.360 C 
ATOM      5  O1  T19     1      95.370 124.219 135.178  0.00  0.00    -0.243 OA
BRANCH   4  16
ATOM      6  C3  T19     1      91.847 131.140 139.050  0.00  0.00    +0.025 A 
ATOM      7  C4  T19     1      91.782 131.070 137.650  0.00  0.00    +0.019 A 
ATOM      8  C5  T19     1      92.117 129.878 136.991  0.00  0.00    +0.028 A 
ATOM      9  C6  T19     1      92.518 128.748 137.729  0.00  0.00    +0.053 A 
ATOM     10  C7  T19     1      92.583 128.807 139.143  0.00  0.00    +0.006 A 
ATOM     11  C8  T19     1      92.246 130.014 139.788  0.00  0.00    +0.024 A 
ATOM     12  C9  T19     1      92.995 127.637 139.978  0.00  0.00    +0.116 C 
ATOM     13  N1  T19     1      94.112 127.008 139.779  0.00  0.00    -0.216 NA
ATOM     14  C16 T19     1      94.884 127.129 138.531  0.00  0.00    +0.160 C 
ATOM     15  C17 T19     1      93.977 126.904 137.345  0.00  0.00    +0.073 A 
ATOM     16  C18 T19     1      94.109 125.898 136.320  0.00  0.00    +0.170 A 
ATOM     17  N5  T19     1      93.098 126.022 135.439  0.00  0.00    -0.228 NA
ATOM     18  C43 T19     1      92.357 127.033 135.868  0.00  0.00    +0.205 A 
ATOM     19  N6  T19     1      92.847 127.584 137.035  0.00  0.00    -0.300 N 
BRANCH  12  20
ATOM     20  C10 T19     1      92.147 127.279 141.151  0.00  0.00    -0.019 A 
ATOM     21  C11 T19     1      92.709 127.161 142.440  0.00  0.00    +0.006 A 
ATOM     22  C12 T19     1      91.908 126.819 143.542  0.00  0.00    +0.000 A 
ATOM     23  C13 T19     1      90.534 126.588 143.369  0.00  0.00    +0.000 A 
ATOM     24  C14 T19     1      89.965 126.695 142.091  0.00  0.00    +0.000 A 
ATOM     25  C15 T19     1      90.766 127.036 140.989  0.00  0.00    +0.006 A 
ENDBRANCH  12  20
BRANCH   6  27
ATOM     26  C1  T19     1      91.231 133.390 140.308  0.00  0.00    +0.009 C 
ATOM     27  C2  T19     1      91.510 132.359 139.726  0.00  0.00    -0.070 C 
ENDBRANCH   6  27
ENDBRANCH   4  16
ENDBRANCH   3   4
ENDBRANCH   2   3
ENDBRANCH   1   2
BRANCH   1  28
ATOM     28  C22 T19     1      97.406 122.425 137.994  0.00  0.00    +0.236 C 
BRANCH  28  29
ATOM     29  O3  T19     1      96.637 121.475 137.231  0.00  0.00    -0.460 OA
BRANCH  29  30
ATOM     30  C23 T19     1      95.504 120.939 137.786  0.00  0.00    +0.360 C 
ATOM     31  O4  T19     1      94.392 121.157 137.329  0.00  0.00    -0.243 OA
BRANCH  30  32
ATOM     32  C24 T19     1      95.748 120.118 138.998  0.00  0.00    +0.170 A 
ATOM     33  N2  T19     1      96.288 118.889 138.956  0.00  0.00    -0.228 NA
ATOM     34  C25 T19     1      96.322 118.492 140.284  0.00  0.00    +0.205 A 
ATOM     35  N3  T19     1      95.836 119.482 141.094  0.00  0.00    -0.300 N 
ATOM     36  C26 T19     1      95.453 120.509 140.272  0.00  0.00    +0.073 A 
ATOM     37  C27 T19     1      94.821 121.746 140.880  0.00  0.00    +0.160 C 
ATOM     38  N4  T19     1      93.524 121.376 141.478  0.00  0.00    -0.216 NA
ATOM     39  C28 T19     1      93.369 120.422 142.346  0.00  0.00    +0.116 C 
ATOM     40  C35 T19     1      94.506 119.805 143.102  0.00  0.00    +0.006 A 
ATOM     41  C36 T19     1      94.402 119.682 144.503  0.00  0.00    +0.024 A 
ATOM     42  C37 T19     1      95.433 119.096 145.256  0.00  0.00    +0.025 A 
ATOM     43  C40 T19     1      96.590 118.626 144.613  0.00  0.00    +0.019 A 
ATOM     44  C41 T19     1      96.713 118.743 143.221  0.00  0.00    +0.028 A 
ATOM     45  C42 T19     1      95.674 119.320 142.465  0.00  0.00    +0.053 A 
BRANCH  39  46
ATOM     46  C29 T19     1      91.987 119.985 142.698  0.00  0.00    -0.019 A 
ATOM     47  C30 T19     1      91.120 120.850 143.397  0.00  0.00    +0.006 A 
ATOM     48  C31 T19     1      89.817 120.442 143.729  0.00  0.00    +0.000 A 
ATOM     49  C32 T19     1      89.367 119.163 143.368  0.00  0.00    +0.000 A 
ATOM     50  C33 T19     1      90.223 118.291 142.678  0.00  0.00    +0.000 A 
ATOM     51  C34 T19     1      91.526 118.699 142.347  0.00  0.00    +0.006 A 
ENDBRANCH  39  46
BRANCH  42  52
ATOM     52  C38 T19     1      95.308 118.987 146.680  0.00  0.00    -0.070 C 
ATOM     53  C39 T19     1      95.207 118.904 147.889  0.00  0.00    +0.009 C 
ENDBRANCH  42  52
ENDBRANCH  30  32
ENDBRANCH  29  30
ENDBRANCH  28  29
ENDBRANCH   1  28
TORSDOF 12
ENDMDL
MODEL 9
REMARK VINA RESULT:    -7.347      3.202      9.645
REMARK INTER + INTRA:         -16.563
REMARK INTER:                 -14.215
REMARK INTRA:                  -2.348
REMARK UNBOUND:                -4.062
REMARK  Name = ligands_pdb/TRN_CHEMBL505768.pdb
REMARK  12 active torsions:
REMARK  status: ('A' for Active; 'I' for Inactive)
REMARK    1  A    between atoms: C2_2  and  C3_3
REMARK    2  A    between atoms: C9_9  and  C10_10
REMARK    3  A    between atoms: C18_19  and  C19_20
REMARK    4  A    between atoms: C19_20  and  O2_22
REMARK    5  A    between atoms: O2_22  and  C20_23
REMARK    6  A    between atoms: C20_23  and  C21_24
REMARK    7  A    between atoms: C21_24  and  C22_25
REMARK    8  A    between atoms: C22_25  and  O3_26
REMARK    9  A    between atoms: O3_26  and  C23_27
REMARK   10  A    between atoms: C23_27  and  C24_29
REMARK   11  A    between atoms: C28_36  and  C29_37
REMARK   12  A    between atoms: C37_45  and  C38_46
REMARK                            x       y       z     vdW  Elec       q    Type
REMARK                         _______ _______ _______ _____ _____    ______ ____
ROOT
ATOM      1  C21 T19     1      97.513 121.385 137.484  0.00  0.00    +0.082 C 
ENDROOT
BRANCH   1   2
ATOM      2  C20 T19     1      98.980 120.932 137.619  0.00  0.00    +0.236 C 
BRANCH   2   3
ATOM      3  O2  T19     1      99.299 120.776 139.015  0.00  0.00    -0.460 OA
BRANCH   3   4
ATOM      4  C19 T19     1      99.187 119.536 139.588  0.00  0.00    +0.360 C 
ATOM      5  O1  T19     1     100.167 118.864 139.870  0.00  0.00    -0.243 OA
BRANCH   4  16
ATOM      6  C3  T19     1      92.269 119.876 142.838  0.00  0.00    +0.025 A 
ATOM      7  C4  T19     1      92.218 119.648 141.455  0.00  0.00    +0.019 A 
ATOM      8  C5  T19     1      93.387 119.312 140.756  0.00  0.00    +0.028 A 
ATOM      9  C6  T19     1      94.613 119.202 141.437  0.00  0.00    +0.053 A 
ATOM     10  C7  T19     1      94.675 119.426 142.835  0.00  0.00    +0.006 A 
ATOM     11  C8  T19     1      93.492 119.766 143.520  0.00  0.00    +0.024 A 
ATOM     12  C9  T19     1      95.948 119.316 143.611  0.00  0.00    +0.116 C 
ATOM     13  N1  T19     1      97.015 119.976 143.283  0.00  0.00    -0.216 NA
ATOM     14  C16 T19     1      97.198 120.586 141.955  0.00  0.00    +0.160 C 
ATOM     15  C17 T19     1      96.901 119.568 140.879  0.00  0.00    +0.073 A 
ATOM     16  C18 T19     1      97.789 119.106 139.841  0.00  0.00    +0.170 A 
ATOM     17  N5  T19     1      97.153 118.193 139.082  0.00  0.00    -0.228 NA
ATOM     18  C43 T19     1      95.940 118.065 139.598  0.00  0.00    +0.205 A 
ATOM     19  N6  T19     1      95.752 118.870 140.704  0.00  0.00    -0.300 N 
BRANCH  12  20
ATOM     20  C10 T19     1      95.934 118.519 144.872  0.00  0.00    -0.019 A 
ATOM     21  C11 T19     1      96.686 118.929 145.994  0.00  0.00    +0.006 A 
ATOM     22  C12 T19     1      96.674 118.175 147.178  0.00  0.00    +0.000 A 
ATOM     23  C13 T19     1      95.912 116.998 147.256  0.00  0.00    +0.000 A 
ATOM     24  C14 T19     1      95.167 116.576 146.145  0.00  0.00    +0.000 A 
ATOM     25  C15 T19     1      95.179 117.331 144.960  0.00  0.00    +0.006 A 
ENDBRANCH  12  20
BRANCH   6  27
ATOM     26  C1  T19     1      90.060 120.524 144.152  0.00  0.00    +0.009 C 
ATOM     27  C2  T19     1      91.076 120.225 143.555  0.00  0.00    -0.070 C 
ENDBRANCH   6  27
ENDBRANCH   4  16
ENDBRANCH   3   4
ENDBRANCH   2   3
ENDBRANCH   1   2
BRANCH   1  28
ATOM     28  C22 T19     1      97.323 122.800 138.065  0.00  0.00    +0.236 C 
BRANCH  28  29
ATOM     29  O3  T19     1      95.918 123.118 138.078  0.00  0.00    -0.460 OA
BRANCH  29  30
ATOM     30  C23 T19     1      95.396 123.864 137.052  0.00  0.00    +0.360 C 
ATOM     31  O4  T19     1      95.218 123.397 135.937  0.00  0.00    -0.243 OA
BRANCH  30  32
ATOM     32  C24 T19     1      95.114 125.276 137.407  0.00  0.00    +0.170 A 
ATOM     33  N2  T19     1      96.067 126.220 137.482  0.00  0.00    -0.228 NA
ATOM     34  C25 T19     1      95.377 127.365 137.848  0.00  0.00    +0.205 A 
ATOM     35  N3  T19     1      94.038 127.104 137.959  0.00  0.00    -0.300 N 
ATOM     36  C26 T19     1      93.875 125.770 137.696  0.00  0.00    +0.073 A 
ATOM     37  C27 T19     1      92.488 125.163 137.790  0.00  0.00    +0.160 C 
ATOM     38  N4  T19     1      92.033 125.223 139.191  0.00  0.00    -0.216 NA
ATOM     39  C28 T19     1      92.004 126.311 139.900  0.00  0.00    +0.116 C 
ATOM     40  C35 T19     1      92.100 127.683 139.307  0.00  0.00    +0.006 A 
ATOM     41  C36 T19     1      91.149 128.654 139.682  0.00  0.00    +0.024 A 
ATOM     42  C37 T19     1      91.204 129.959 139.166  0.00  0.00    +0.025 A 
ATOM     43  C40 T19     1      92.217 130.311 138.259  0.00  0.00    +0.019 A 
ATOM     44  C41 T19     1      93.171 129.358 137.871  0.00  0.00    +0.028 A 
ATOM     45  C42 T19     1      93.121 128.053 138.398  0.00  0.00    +0.053 A 
BRANCH  39  46
ATOM     46  C29 T19     1      91.753 126.209 141.367  0.00  0.00    -0.019 A 
ATOM     47  C30 T19     1      92.758 126.567 142.291  0.00  0.00    +0.006 A 
ATOM     48  C31 T19     1      92.525 126.475 143.673  0.00  0.00    +0.000 A 
ATOM     49  C32 T19     1      91.286 126.021 144.148  0.00  0.00    +0.000 A 
ATOM     50  C33 T19     1      90.281 125.655 143.240  0.00  0.00    +0.000 A 
ATOM     51  C34 T19     1      90.515 125.747 141.858  0.00  0.00    +0.006 A 
ENDBRANCH  39  46
BRANCH  42  52
ATOM     52  C38 T19     1      90.222 130.928 139.557  0.00  0.00    -0.070 C 
ATOM     53  C39 T19     1      89.396 131.754 139.895  0.00  0.00    +0.009 C 
ENDBRANCH  42  52
ENDBRANCH  30  32
ENDBRANCH  29  30
ENDBRANCH  28  29
ENDBRANCH   1  28
TORSDOF 12
ENDMDL
MODEL 10
REMARK VINA RESULT:    -7.310      2.523      8.630
REMARK INTER + INTRA:         -16.499
REMARK INTER:                 -13.545
REMARK INTRA:                  -2.954
REMARK UNBOUND:                -4.062
REMARK  Name = ligands_pdb/TRN_CHEMBL505768.pdb
REMARK  12 active torsions:
REMARK  status: ('A' for Active; 'I' for Inactive)
REMARK    1  A    between atoms: C2_2  and  C3_3
REMARK    2  A    between atoms: C9_9  and  C10_10
REMARK    3  A    between atoms: C18_19  and  C19_20
REMARK    4  A    between atoms: C19_20  and  O2_22
REMARK    5  A    between atoms: O2_22  and  C20_23
REMARK    6  A    between atoms: C20_23  and  C21_24
REMARK    7  A    between atoms: C21_24  and  C22_25
REMARK    8  A    between atoms: C22_25  and  O3_26
REMARK    9  A    between atoms: O3_26  and  C23_27
REMARK   10  A    between atoms: C23_27  and  C24_29
REMARK   11  A    between atoms: C28_36  and  C29_37
REMARK   12  A    between atoms: C37_45  and  C38_46
REMARK                            x       y       z     vdW  Elec       q    Type
REMARK                         _______ _______ _______ _____ _____    ______ ____
ROOT
ATOM      1  C21 T19     1      88.809 121.779 141.425  0.00  0.00    +0.082 C 
ENDROOT
BRANCH   1   2
ATOM      2  C20 T19     1      88.954 120.830 140.219  0.00  0.00    +0.236 C 
BRANCH   2   3
ATOM      3  O2  T19     1      89.611 121.530 139.146  0.00  0.00    -0.460 OA
BRANCH   3   4
ATOM      4  C19 T19     1      90.373 120.819 138.256  0.00  0.00    +0.360 C 
ATOM      5  O1  T19     1      90.227 120.930 137.049  0.00  0.00    -0.243 OA
BRANCH   4  16
ATOM      6  C3  T19     1      96.488 119.169 142.547  0.00  0.00    +0.025 A 
ATOM      7  C4  T19     1      95.408 118.302 142.771  0.00  0.00    +0.019 A 
ATOM      8  C5  T19     1      94.311 118.310 141.896  0.00  0.00    +0.028 A 
ATOM      9  C6  T19     1      94.289 119.184 140.793  0.00  0.00    +0.053 A 
ATOM     10  C7  T19     1      95.378 120.060 140.557  0.00  0.00    +0.006 A 
ATOM     11  C8  T19     1      96.469 120.041 141.447  0.00  0.00    +0.024 A 
ATOM     12  C9  T19     1      95.412 121.004 139.398  0.00  0.00    +0.116 C 
ATOM     13  N1  T19     1      94.456 121.850 139.170  0.00  0.00    -0.216 NA
ATOM     14  C16 T19     1      93.118 121.725 139.774  0.00  0.00    +0.160 C 
ATOM     15  C17 T19     1      92.593 120.324 139.567  0.00  0.00    +0.073 A 
ATOM     16  C18 T19     1      91.381 119.933 138.890  0.00  0.00    +0.170 A 
ATOM     17  N5  T19     1      91.268 118.592 138.913  0.00  0.00    -0.228 NA
ATOM     18  C43 T19     1      92.337 118.142 139.553  0.00  0.00    +0.205 A 
ATOM     19  N6  T19     1      93.178 119.162 139.951  0.00  0.00    -0.300 N 
BRANCH  12  20
ATOM     20  C10 T19     1      96.649 121.050 138.567  0.00  0.00    -0.019 A 
ATOM     21  C11 T19     1      97.052 119.929 137.809  0.00  0.00    +0.006 A 
ATOM     22  C12 T19     1      98.220 119.974 137.031  0.00  0.00    +0.000 A 
ATOM     23  C13 T19     1      99.003 121.139 137.002  0.00  0.00    +0.000 A 
ATOM     24  C14 T19     1      98.617 122.257 137.757  0.00  0.00    +0.000 A 
ATOM     25  C15 T19     1      97.449 122.212 138.535  0.00  0.00    +0.006 A 
ENDBRANCH  12  20
BRANCH   6  27
ATOM     26  C1  T19     1      98.553 119.160 144.210  0.00  0.00    +0.009 C 
ATOM     27  C2  T19     1      97.609 119.167 143.443  0.00  0.00    -0.070 C 
ENDBRANCH   6  27
ENDBRANCH   4  16
ENDBRANCH   3   4
ENDBRANCH   2   3
ENDBRANCH   1   2
BRANCH   1  28
ATOM     28  C22 T19     1      90.134 121.875 142.207  0.00  0.00    +0.236 C 
BRANCH  28  29
ATOM     29  O3  T19     1      90.573 123.246 142.221  0.00  0.00    -0.460 OA
BRANCH  29  30
ATOM     30  C23 T19     1      89.938 124.139 143.046  0.00  0.00    +0.360 C 
ATOM     31  O4  T19     1      89.624 123.852 144.192  0.00  0.00    -0.243 OA
BRANCH  30  32
ATOM     32  C24 T19     1      89.637 125.446 142.414  0.00  0.00    +0.170 A 
ATOM     33  N2  T19     1      88.470 125.717 141.807  0.00  0.00    -0.228 NA
ATOM     34  C25 T19     1      88.620 127.020 141.356  0.00  0.00    +0.205 A 
ATOM     35  N3  T19     1      89.844 127.515 141.718  0.00  0.00    -0.300 N 
ATOM     36  C26 T19     1      90.497 126.505 142.374  0.00  0.00    +0.073 A 
ATOM     37  C27 T19     1      91.915 126.737 142.861  0.00  0.00    +0.160 C 
ATOM     38  N4  T19     1      92.797 126.920 141.694  0.00  0.00    -0.216 NA
ATOM     39  C28 T19     1      92.588 127.790 140.753  0.00  0.00    +0.116 C 
ATOM     40  C35 T19     1      91.632 128.936 140.890  0.00  0.00    +0.006 A 
ATOM     41  C36 T19     1      92.075 130.233 140.557  0.00  0.00    +0.024 A 
ATOM     42  C37 T19     1      91.214 131.339 140.653  0.00  0.00    +0.025 A 
ATOM     43  C40 T19     1      89.892 131.160 141.090  0.00  0.00    +0.019 A 
ATOM     44  C41 T19     1      89.434 129.879 141.430  0.00  0.00    +0.028 A 
ATOM     45  C42 T19     1      90.294 128.769 141.322  0.00  0.00    +0.053 A 
BRANCH  39  46
ATOM     46  C29 T19     1      93.411 127.722 139.511  0.00  0.00    -0.019 A 
ATOM     47  C30 T19     1      94.803 127.940 139.563  0.00  0.00    +0.006 A 
ATOM     48  C31 T19     1      95.582 127.875 138.395  0.00  0.00    +0.000 A 
ATOM     49  C32 T19     1      94.977 127.594 137.162  0.00  0.00    +0.000 A 
ATOM     50  C33 T19     1      93.591 127.383 137.095  0.00  0.00    +0.000 A 
ATOM     51  C34 T19     1      92.813 127.449 138.263  0.00  0.00    +0.006 A 
ENDBRANCH  39  46
BRANCH  42  52
ATOM     52  C38 T19     1      91.688 132.649 140.314  0.00  0.00    -0.070 C 
ATOM     53  C39 T19     1      92.097 133.755 140.020  0.00  0.00    +0.009 C 
ENDBRANCH  42  52
ENDBRANCH  30  32
ENDBRANCH  29  30
ENDBRANCH  28  29
ENDBRANCH   1  28
TORSDOF 12
ENDMDL
