MODEL 1
REMARK VINA RESULT:    -7.038      0.000      0.000
REMARK INTER + INTRA:          -8.358
REMARK INTER:                  -8.272
REMARK INTRA:                  -0.086
REMARK UNBOUND:                -0.086
REMARK  Name = ligands_pdb/F3_CHEMBL417498.pdb
REMARK  5 active torsions:
REMARK  status: ('A' for Active; 'I' for Inactive)
REMARK    1  A    between atoms: C3_6  and  C4_7
REMARK    2  A    between atoms: C7_12  and  O1_13
REMARK    3  A    between atoms: O1_13  and  C8_14
REMARK    4  A    between atoms: C9_18  and  O2_19
REMARK    5  A    between atoms: O2_19  and  C10_20
REMARK                            x       y       z     vdW  Elec       q    Type
REMARK                         _______ _______ _______ _____ _____    ______ ____
ROOT
ATOM      1  C4  F09     1     145.387 100.011 140.249  0.00  0.00    -0.013 A 
ATOM      2  C5  F09     1     144.376 100.200 141.222  0.00  0.00    +0.012 A 
ATOM      3  C6  F09     1     143.179  99.470 141.181  0.00  0.00    +0.050 A 
ATOM      4  C7  F09     1     142.953  98.525 140.161  0.00  0.00    +0.162 A 
ATOM      5  C9  F09     1     143.944  98.318 139.176  0.00  0.00    +0.162 A 
ATOM      6  C11 F09     1     145.145  99.056 139.229  0.00  0.00    +0.058 A 
ENDROOT
BRANCH   1  10
ATOM      7  C1  F09     1     149.062 102.212 140.282  0.00  0.00    +0.111 A 
ATOM      8  N1  F09     1     148.684 101.578 139.156  0.00  0.00    -0.263 NA
ATOM      9  C2  F09     1     147.523 100.891 139.166  0.00  0.00    +0.119 A 
ATOM     10  C3  F09     1     146.669 100.791 140.296  0.00  0.00    +0.000 A 
ATOM     11  C12 F09     1     147.092 101.466 141.467  0.00  0.00    +0.011 A 
ATOM     12  C13 F09     1     148.299 102.184 141.459  0.00  0.00    +0.020 A 
ENDBRANCH   1  10
BRANCH   4  13
ATOM     13  O1  F09     1     141.781  97.792 140.095  0.00  0.00    -0.491 OA
ATOM     14  C8  F09     1     141.717  96.366 140.279  0.00  0.00    +0.277 C 
ENDBRANCH   4  13
BRANCH   5  15
ATOM     15  O2  F09     1     143.705  97.389 138.178  0.00  0.00    -0.491 OA
ATOM     16  C10 F09     1     144.002  97.609 136.788  0.00  0.00    +0.277 C 
ENDBRANCH   5  15
TORSDOF 3
ENDMDL
MODEL 2
REMARK VINA RESULT:    -6.503      3.078      5.981
REMARK INTER + INTRA:          -7.730
REMARK INTER:                  -7.489
REMARK INTRA:                  -0.240
REMARK UNBOUND:                -0.086
REMARK  Name = ligands_pdb/F3_CHEMBL417498.pdb
REMARK  5 active torsions:
REMARK  status: ('A' for Active; 'I' for Inactive)
REMARK    1  A    between atoms: C3_6  and  C4_7
REMARK    2  A    between atoms: C7_12  and  O1_13
REMARK    3  A    between atoms: O1_13  and  C8_14
REMARK    4  A    between atoms: C9_18  and  O2_19
REMARK    5  A    between atoms: O2_19  and  C10_20
REMARK                            x       y       z     vdW  Elec       q    Type
REMARK                         _______ _______ _______ _____ _____    ______ ____
ROOT
ATOM      1  C4  F09     1     143.212  97.460 138.044  0.00  0.00    -0.013 A 
ATOM      2  C5  F09     1     142.203  97.140 138.984  0.00  0.00    +0.012 A 
ATOM      3  C6  F09     1     142.378  97.387 140.354  0.00  0.00    +0.050 A 
ATOM      4  C7  F09     1     143.573  97.961 140.829  0.00  0.00    +0.162 A 
ATOM      5  C9  F09     1     144.597  98.289 139.913  0.00  0.00    +0.162 A 
ATOM      6  C11 F09     1     144.408  98.039 138.538  0.00  0.00    +0.058 A 
ENDROOT
BRANCH   1  10
ATOM      7  C1  F09     1     142.574  96.760 133.866  0.00  0.00    +0.111 A 
ATOM      8  N1  F09     1     141.610  97.362 134.588  0.00  0.00    -0.263 NA
ATOM      9  C2  F09     1     141.831  97.574 135.901  0.00  0.00    +0.119 A 
ATOM     10  C3  F09     1     143.021  97.199 136.578  0.00  0.00    +0.000 A 
ATOM     11  C12 F09     1     144.018  96.566 135.794  0.00  0.00    +0.011 A 
ATOM     12  C13 F09     1     143.792  96.346 134.426  0.00  0.00    +0.020 A 
ENDBRANCH   1  10
BRANCH   4  13
ATOM     13  O1  F09     1     143.773  98.214 142.175  0.00  0.00    -0.491 OA
ATOM     14  C8  F09     1     143.637  99.515 142.774  0.00  0.00    +0.277 C 
ENDBRANCH   4  13
BRANCH   5  15
ATOM     15  O2  F09     1     145.766  98.849 140.396  0.00  0.00    -0.491 OA
ATOM     16  C10 F09     1     146.194 100.192 140.107  0.00  0.00    +0.277 C 
ENDBRANCH   5  15
TORSDOF 3
ENDMDL
MODEL 3
REMARK VINA RESULT:    -6.461      4.425      6.737
REMARK INTER + INTRA:          -7.680
REMARK INTER:                  -7.340
REMARK INTRA:                  -0.340
REMARK UNBOUND:                -0.086
REMARK  Name = ligands_pdb/F3_CHEMBL417498.pdb
REMARK  5 active torsions:
REMARK  status: ('A' for Active; 'I' for Inactive)
REMARK    1  A    between atoms: C3_6  and  C4_7
REMARK    2  A    between atoms: C7_12  and  O1_13
REMARK    3  A    between atoms: O1_13  and  C8_14
REMARK    4  A    between atoms: C9_18  and  O2_19
REMARK    5  A    between atoms: O2_19  and  C10_20
REMARK                            x       y       z     vdW  Elec       q    Type
REMARK                         _______ _______ _______ _____ _____    ______ ____
ROOT
ATOM      1  C4  F09     1     143.045  97.063 136.476  0.00  0.00    -0.013 A 
ATOM      2  C5  F09     1     144.185  96.496 135.858  0.00  0.00    +0.012 A 
ATOM      3  C6  F09     1     144.307  96.446 134.461  0.00  0.00    +0.050 A 
ATOM      4  C7  F09     1     143.289  96.960 133.636  0.00  0.00    +0.162 A 
ATOM      5  C9  F09     1     142.139  97.529 134.227  0.00  0.00    +0.162 A 
ATOM      6  C11 F09     1     142.029  97.577 135.632  0.00  0.00    +0.058 A 
ENDROOT
BRANCH   1  10
ATOM      7  C1  F09     1     142.758  97.294 140.744  0.00  0.00    +0.111 A 
ATOM      8  N1  F09     1     143.688  98.028 140.106  0.00  0.00    -0.263 NA
ATOM      9  C2  F09     1     143.761  97.942 138.762  0.00  0.00    +0.119 A 
ATOM     10  C3  F09     1     142.916  97.119 137.971  0.00  0.00    +0.000 A 
ATOM     11  C12 F09     1     141.948  96.355 138.669  0.00  0.00    +0.011 A 
ATOM     12  C13 F09     1     141.867  96.445 140.068  0.00  0.00    +0.020 A 
ENDBRANCH   1  10
BRANCH   4  13
ATOM     13  O1  F09     1     143.382  96.923 132.256  0.00  0.00    -0.491 OA
ATOM     14  C8  F09     1     144.219  97.803 131.485  0.00  0.00    +0.277 C 
ENDBRANCH   4  13
BRANCH   5  15
ATOM     15  O2  F09     1     141.145  98.027 133.402  0.00  0.00    -0.491 OA
ATOM     16  C10 F09     1     140.951  99.426 133.131  0.00  0.00    +0.277 C 
ENDBRANCH   5  15
TORSDOF 3
ENDMDL
MODEL 4
REMARK VINA RESULT:    -6.424      4.439      6.648
REMARK INTER + INTRA:          -7.636
REMARK INTER:                  -7.305
REMARK INTRA:                  -0.331
REMARK UNBOUND:                -0.086
REMARK  Name = ligands_pdb/F3_CHEMBL417498.pdb
REMARK  5 active torsions:
REMARK  status: ('A' for Active; 'I' for Inactive)
REMARK    1  A    between atoms: C3_6  and  C4_7
REMARK    2  A    between atoms: C7_12  and  O1_13
REMARK    3  A    between atoms: O1_13  and  C8_14
REMARK    4  A    between atoms: C9_18  and  O2_19
REMARK    5  A    between atoms: O2_19  and  C10_20
REMARK                            x       y       z     vdW  Elec       q    Type
REMARK                         _______ _______ _______ _____ _____    ______ ____
ROOT
ATOM      1  C4  F09     1     143.237  97.246 136.399  0.00  0.00    -0.013 A 
ATOM      2  C5  F09     1     142.156  97.441 135.506  0.00  0.00    +0.012 A 
ATOM      3  C6  F09     1     142.352  97.470 134.118  0.00  0.00    +0.050 A 
ATOM      4  C7  F09     1     143.642  97.307 133.576  0.00  0.00    +0.162 A 
ATOM      5  C9  F09     1     144.739  97.114 134.444  0.00  0.00    +0.162 A 
ATOM      6  C11 F09     1     144.528  97.083 135.838  0.00  0.00    +0.058 A 
ENDROOT
BRANCH   1  10
ATOM      7  C1  F09     1     142.710  97.215 140.650  0.00  0.00    +0.111 A 
ATOM      8  N1  F09     1     143.704  97.947 140.116  0.00  0.00    -0.263 NA
ATOM      9  C2  F09     1     143.853  97.944 138.775  0.00  0.00    +0.119 A 
ATOM     10  C3  F09     1     143.024  97.212 137.885  0.00  0.00    +0.000 A 
ATOM     11  C12 F09     1     141.986  96.448 138.475  0.00  0.00    +0.011 A 
ATOM     12  C13 F09     1     141.827  96.452 139.870  0.00  0.00    +0.020 A 
ENDBRANCH   1  10
BRANCH   4  13
ATOM     13  O1  F09     1     143.866  97.333 132.211  0.00  0.00    -0.491 OA
ATOM     14  C8  F09     1     143.980  98.543 131.441  0.00  0.00    +0.277 C 
ENDBRANCH   4  13
BRANCH   5  15
ATOM     15  O2  F09     1     146.001  96.959 133.896  0.00  0.00    -0.491 OA
ATOM     16  C10 F09     1     146.654  95.689 133.726  0.00  0.00    +0.277 C 
ENDBRANCH   5  15
TORSDOF 3
ENDMDL
MODEL 5
REMARK VINA RESULT:    -5.838      5.682      7.975
REMARK INTER + INTRA:          -6.947
REMARK INTER:                  -6.620
REMARK INTRA:                  -0.328
REMARK UNBOUND:                -0.086
REMARK  Name = ligands_pdb/F3_CHEMBL417498.pdb
REMARK  5 active torsions:
REMARK  status: ('A' for Active; 'I' for Inactive)
REMARK    1  A    between atoms: C3_6  and  C4_7
REMARK    2  A    between atoms: C7_12  and  O1_13
REMARK    3  A    between atoms: O1_13  and  C8_14
REMARK    4  A    between atoms: C9_18  and  O2_19
REMARK    5  A    between atoms: O2_19  and  C10_20
REMARK                            x       y       z     vdW  Elec       q    Type
REMARK                         _______ _______ _______ _____ _____    ______ ____
ROOT
ATOM      1  C4  F09     1     142.492  98.557 133.636  0.00  0.00    -0.013 A 
ATOM      2  C5  F09     1     141.560  98.162 134.626  0.00  0.00    +0.012 A 
ATOM      3  C6  F09     1     141.970  97.494 135.789  0.00  0.00    +0.050 A 
ATOM      4  C7  F09     1     143.331  97.197 135.999  0.00  0.00    +0.162 A 
ATOM      5  C9  F09     1     144.282  97.576 135.027  0.00  0.00    +0.162 A 
ATOM      6  C11 F09     1     143.858  98.251 133.863  0.00  0.00    +0.058 A 
ENDROOT
BRANCH   1  10
ATOM      7  C1  F09     1     141.330 100.585 130.047  0.00  0.00    +0.111 A 
ATOM      8  N1  F09     1     142.563 100.053 130.132  0.00  0.00    -0.263 NA
ATOM      9  C2  F09     1     142.909  99.418 131.271  0.00  0.00    +0.119 A 
ATOM     10  C3  F09     1     142.052  99.275 132.393  0.00  0.00    +0.000 A 
ATOM     11  C12 F09     1     140.760  99.847 132.276  0.00  0.00    +0.011 A 
ATOM     12  C13 F09     1     140.396 100.506 131.091  0.00  0.00    +0.020 A 
ENDBRANCH   1  10
BRANCH   4  13
ATOM     13  O1  F09     1     143.764  96.537 137.136  0.00  0.00    -0.491 OA
ATOM     14  C8  F09     1     142.934  96.294 138.286  0.00  0.00    +0.277 C 
ENDBRANCH   4  13
BRANCH   5  15
ATOM     15  O2  F09     1     145.614  97.273 135.246  0.00  0.00    -0.491 OA
ATOM     16  C10 F09     1     146.390  96.403 134.403  0.00  0.00    +0.277 C 
ENDBRANCH   5  15
TORSDOF 3
ENDMDL
MODEL 6
REMARK VINA RESULT:    -5.822      6.254      8.247
REMARK INTER + INTRA:          -6.928
REMARK INTER:                  -6.605
REMARK INTRA:                  -0.323
REMARK UNBOUND:                -0.086
REMARK  Name = ligands_pdb/F3_CHEMBL417498.pdb
REMARK  5 active torsions:
REMARK  status: ('A' for Active; 'I' for Inactive)
REMARK    1  A    between atoms: C3_6  and  C4_7
REMARK    2  A    between atoms: C7_12  and  O1_13
REMARK    3  A    between atoms: O1_13  and  C8_14
REMARK    4  A    between atoms: C9_18  and  O2_19
REMARK    5  A    between atoms: O2_19  and  C10_20
REMARK                            x       y       z     vdW  Elec       q    Type
REMARK                         _______ _______ _______ _____ _____    ______ ____
ROOT
ATOM      1  C4  F09     1     142.346  98.333 134.004  0.00  0.00    -0.013 A 
ATOM      2  C5  F09     1     141.020  98.693 133.662  0.00  0.00    +0.012 A 
ATOM      3  C6  F09     1     140.738  99.406 132.488  0.00  0.00    +0.050 A 
ATOM      4  C7  F09     1     141.776  99.785 131.615  0.00  0.00    +0.162 A 
ATOM      5  C9  F09     1     143.108  99.441 131.932  0.00  0.00    +0.162 A 
ATOM      6  C11 F09     1     143.380  98.722 133.115  0.00  0.00    +0.058 A 
ENDROOT
BRANCH   1  10
ATOM      7  C1  F09     1     143.292  96.112 137.542  0.00  0.00    +0.111 A 
ATOM      8  N1  F09     1     144.117  96.042 136.481  0.00  0.00    -0.263 NA
ATOM      9  C2  F09     1     143.801  96.750 135.377  0.00  0.00    +0.119 A 
ATOM     10  C3  F09     1     142.647  97.567 135.260  0.00  0.00    +0.000 A 
ATOM     11  C12 F09     1     141.796  97.621 136.391  0.00  0.00    +0.011 A 
ATOM     12  C13 F09     1     142.123  96.888 137.543  0.00  0.00    +0.020 A 
ENDBRANCH   1  10
BRANCH   4  13
ATOM     13  O1  F09     1     141.527 100.490 130.450  0.00  0.00    -0.491 OA
ATOM     14  C8  F09     1     140.287 101.166 130.173  0.00  0.00    +0.277 C 
ENDBRANCH   4  13
BRANCH   5  15
ATOM     15  O2  F09     1     144.118  99.824 131.067  0.00  0.00    -0.491 OA
ATOM     16  C10 F09     1     144.839  98.913 130.218  0.00  0.00    +0.277 C 
ENDBRANCH   5  15
TORSDOF 3
ENDMDL
MODEL 7
REMARK VINA RESULT:    -5.683      8.964     11.665
REMARK INTER + INTRA:          -6.766
REMARK INTER:                  -6.431
REMARK INTRA:                  -0.335
REMARK UNBOUND:                -0.086
REMARK  Name = ligands_pdb/F3_CHEMBL417498.pdb
REMARK  5 active torsions:
REMARK  status: ('A' for Active; 'I' for Inactive)
REMARK    1  A    between atoms: C3_6  and  C4_7
REMARK    2  A    between atoms: C7_12  and  O1_13
REMARK    3  A    between atoms: O1_13  and  C8_14
REMARK    4  A    between atoms: C9_18  and  O2_19
REMARK    5  A    between atoms: O2_19  and  C10_20
REMARK                            x       y       z     vdW  Elec       q    Type
REMARK                         _______ _______ _______ _____ _____    ______ ____
ROOT
ATOM      1  C4  F09     1     140.687  99.135 130.282  0.00  0.00    -0.013 A 
ATOM      2  C5  F09     1     139.572  99.979 130.063  0.00  0.00    +0.012 A 
ATOM      3  C6  F09     1     139.096 100.239 128.769  0.00  0.00    +0.050 A 
ATOM      4  C7  F09     1     139.725  99.662 127.648  0.00  0.00    +0.162 A 
ATOM      5  C9  F09     1     140.842  98.819 127.837  0.00  0.00    +0.162 A 
ATOM      6  C11 F09     1     141.309  98.563 129.143  0.00  0.00    +0.058 A 
ENDROOT
BRANCH   1  10
ATOM      7  C1  F09     1     142.067  98.253 134.240  0.00  0.00    +0.111 A 
ATOM      8  N1  F09     1     141.146  97.454 133.670  0.00  0.00    -0.263 NA
ATOM      9  C2  F09     1     140.725  97.749 132.423  0.00  0.00    +0.119 A 
ATOM     10  C3  F09     1     141.193  98.856 131.668  0.00  0.00    +0.000 A 
ATOM     11  C12 F09     1     142.161  99.681 132.292  0.00  0.00    +0.011 A 
ATOM     12  C13 F09     1     142.604  99.375 133.589  0.00  0.00    +0.020 A 
ENDBRANCH   1  10
BRANCH   4  13
ATOM     13  O1  F09     1     139.279  99.902 126.360  0.00  0.00    -0.491 OA
ATOM     14  C8  F09     1     138.208  99.172 125.735  0.00  0.00    +0.277 C 
ENDBRANCH   4  13
BRANCH   5  15
ATOM     15  O2  F09     1     141.451  98.264 126.726  0.00  0.00    -0.491 OA
ATOM     16  C10 F09     1     141.365  96.872 126.372  0.00  0.00    +0.277 C 
ENDBRANCH   5  15
TORSDOF 3
ENDMDL
MODEL 8
REMARK VINA RESULT:    -5.568      6.946      9.077
REMARK INTER + INTRA:          -6.630
REMARK INTER:                  -6.280
REMARK INTRA:                  -0.350
REMARK UNBOUND:                -0.086
REMARK  Name = ligands_pdb/F3_CHEMBL417498.pdb
REMARK  5 active torsions:
REMARK  status: ('A' for Active; 'I' for Inactive)
REMARK    1  A    between atoms: C3_6  and  C4_7
REMARK    2  A    between atoms: C7_12  and  O1_13
REMARK    3  A    between atoms: O1_13  and  C8_14
REMARK    4  A    between atoms: C9_18  and  O2_19
REMARK    5  A    between atoms: O2_19  and  C10_20
REMARK                            x       y       z     vdW  Elec       q    Type
REMARK                         _______ _______ _______ _____ _____    ______ ____
ROOT
ATOM      1  C4  F09     1     142.795  98.836 132.467  0.00  0.00    -0.013 A 
ATOM      2  C5  F09     1     141.634  99.337 133.103  0.00  0.00    +0.012 A 
ATOM      3  C6  F09     1     140.679 100.083 132.397  0.00  0.00    +0.050 A 
ATOM      4  C7  F09     1     140.858 100.356 131.027  0.00  0.00    +0.162 A 
ATOM      5  C9  F09     1     142.008  99.871 130.367  0.00  0.00    +0.162 A 
ATOM      6  C11 F09     1     142.959  99.118 131.088  0.00  0.00    +0.058 A 
ENDROOT
BRANCH   1  10
ATOM      7  C1  F09     1     145.744  96.517 134.535  0.00  0.00    +0.111 A 
ATOM      8  N1  F09     1     145.750  96.541 133.189  0.00  0.00    -0.263 NA
ATOM      9  C2  F09     1     144.813  97.278 132.557  0.00  0.00    +0.119 A 
ATOM     10  C3  F09     1     143.814  98.033 133.224  0.00  0.00    +0.000 A 
ATOM     11  C12 F09     1     143.830  97.989 134.640  0.00  0.00    +0.011 A 
ATOM     12  C13 F09     1     144.806  97.226 135.301  0.00  0.00    +0.020 A 
ENDBRANCH   1  10
BRANCH   4  13
ATOM     13  O1  F09     1     139.934 101.092 130.305  0.00  0.00    -0.491 OA
ATOM     14  C8  F09     1     138.796 100.516 129.640  0.00  0.00    +0.277 C 
ENDBRANCH   4  13
BRANCH   5  15
ATOM     15  O2  F09     1     142.171 100.151 129.022  0.00  0.00    -0.491 OA
ATOM     16  C10 F09     1     142.229  99.147 127.993  0.00  0.00    +0.277 C 
ENDBRANCH   5  15
TORSDOF 3
ENDMDL
MODEL 9
REMARK VINA RESULT:    -5.544      7.116      9.801
REMARK INTER + INTRA:          -6.602
REMARK INTER:                  -6.240
REMARK INTRA:                  -0.362
REMARK UNBOUND:                -0.086
REMARK  Name = ligands_pdb/F3_CHEMBL417498.pdb
REMARK  5 active torsions:
REMARK  status: ('A' for Active; 'I' for Inactive)
REMARK    1  A    between atoms: C3_6  and  C4_7
REMARK    2  A    between atoms: C7_12  and  O1_13
REMARK    3  A    between atoms: O1_13  and  C8_14
REMARK    4  A    between atoms: C9_18  and  O2_19
REMARK    5  A    between atoms: O2_19  and  C10_20
REMARK                            x       y       z     vdW  Elec       q    Type
REMARK                         _______ _______ _______ _____ _____    ______ ____
ROOT
ATOM      1  C4  F09     1     141.748  99.304 131.660  0.00  0.00    -0.013 A 
ATOM      2  C5  F09     1     140.988  99.312 132.854  0.00  0.00    +0.012 A 
ATOM      3  C6  F09     1     141.489  98.759 134.042  0.00  0.00    +0.050 A 
ATOM      4  C7  F09     1     142.771  98.175 134.072  0.00  0.00    +0.162 A 
ATOM      5  C9  F09     1     143.550  98.152 132.895  0.00  0.00    +0.162 A 
ATOM      6  C11 F09     1     143.036  98.714 131.707  0.00  0.00    +0.058 A 
ENDROOT
BRANCH   1  10
ATOM      7  C1  F09     1     140.292 100.954 127.985  0.00  0.00    +0.111 A 
ATOM      8  N1  F09     1     141.373 100.152 127.964  0.00  0.00    -0.263 NA
ATOM      9  C2  F09     1     141.814  99.642 129.132  0.00  0.00    +0.119 A 
ATOM     10  C3  F09     1     141.211  99.900 130.391  0.00  0.00    +0.000 A 
ATOM     11  C12 F09     1     140.076 100.749 130.383  0.00  0.00    +0.011 A 
ATOM     12  C13 F09     1     139.612 101.279 129.169  0.00  0.00    +0.020 A 
ENDBRANCH   1  10
BRANCH   4  13
ATOM     13  O1  F09     1     143.290  97.621 135.229  0.00  0.00    -0.491 OA
ATOM     14  C8  F09     1     142.933  96.317 135.722  0.00  0.00    +0.277 C 
ENDBRANCH   4  13
BRANCH   5  15
ATOM     15  O2  F09     1     144.805  97.572 132.940  0.00  0.00    -0.491 OA
ATOM     16  C10 F09     1     145.185  96.415 132.173  0.00  0.00    +0.277 C 
ENDBRANCH   5  15
TORSDOF 3
ENDMDL
