MODEL 1
REMARK VINA RESULT:    -6.909      0.000      0.000
REMARK INTER + INTRA:         -10.957
REMARK INTER:                  -9.737
REMARK INTRA:                  -1.220
REMARK UNBOUND:                -1.220
REMARK  Name = ligands_pdb/F3_CHEMBL14006.pdb
REMARK  9 active torsions:
REMARK  status: ('A' for Active; 'I' for Inactive)
REMARK    1  A    between atoms: C3_5  and  C4_6
REMARK    2  A    between atoms: N3_21  and  C13_22
REMARK    3  A    between atoms: N3_21  and  C16_33
REMARK    4  A    between atoms: C13_22  and  C14_25
REMARK    5  A    between atoms: C14_25  and  O1_28
REMARK    6  A    between atoms: O1_28  and  C15_29
REMARK    7  A    between atoms: C16_33  and  C17_36
REMARK    8  A    between atoms: C17_36  and  O2_39
REMARK    9  A    between atoms: O2_39  and  C18_40
REMARK                            x       y       z     vdW  Elec       q    Type
REMARK                         _______ _______ _______ _____ _____    ______ ____
ROOT
ATOM      1  C4  F02     1     140.727  99.757 131.855  0.00  0.00    +0.185 A 
ATOM      2  N1  F02     1     140.273 100.491 132.858  0.00  0.00    -0.127 NA
ATOM      3  N2  F02     1     140.698  99.929 134.034  0.00  0.00    -0.127 NA
ATOM      4  C5  F02     1     141.421  98.876 133.712  0.00  0.00    +0.186 A 
ATOM      5  C6  F02     1     142.074  97.926 134.586  0.00  0.00    +0.031 A 
ATOM      6  C7  F02     1     141.973  97.979 135.988  0.00  0.00    +0.012 A 
ATOM      7  C8  F02     1     142.578  96.983 136.766  0.00  0.00    +0.001 A 
ATOM      8  C9  F02     1     143.263  95.931 136.140  0.00  0.00    +0.001 A 
ATOM      9  C10 F02     1     143.360  95.885 134.738  0.00  0.00    +0.012 A 
ATOM     10  C11 F02     1     142.788  96.899 133.941  0.00  0.00    +0.027 A 
ATOM     11  C12 F02     1     142.863  96.907 132.453  0.00  0.00    +0.150 A 
ATOM     12  N3  F02     1     143.699  96.023 131.775  0.00  0.00    -0.309 N 
ATOM     13  N4  F02     1     142.197  97.768 131.672  0.00  0.00    -0.147 NA
ATOM     14  N5  F02     1     141.484  98.715 132.356  0.00  0.00    -0.190 N 
ENDROOT
BRANCH   1  17
ATOM     15  C1  F02     1     138.973 100.028 128.511  0.00  0.00    +0.039 A 
ATOM     16  C2  F02     1     139.226  99.751 129.866  0.00  0.00    +0.014 A 
ATOM     17  C3  F02     1     140.478 100.055 130.439  0.00  0.00    +0.021 A 
ATOM     18  C19 F02     1     141.480 100.624 129.626  0.00  0.00    +0.014 A 
ATOM     19  C20 F02     1     141.230 100.900 128.271  0.00  0.00    +0.039 A 
ATOM     20  C21 F02     1     139.975 100.605 127.718  0.00  0.00    +0.123 A 
ATOM     21  F1  F02     1     139.734 100.870 126.418  0.00  0.00    -0.205 F 
ENDBRANCH   1  17
BRANCH  12  22
ATOM     22  C13 F02     1     143.269  95.394 130.496  0.00  0.00    +0.134 C 
BRANCH  22  23
ATOM     23  C14 F02     1     142.545  94.033 130.663  0.00  0.00    +0.178 C 
BRANCH  23  24
ATOM     24  O1  F02     1     141.189  94.248 131.090  0.00  0.00    -0.381 OA
ATOM     25  C15 F02     1     140.894  93.761 132.406  0.00  0.00    +0.194 C 
ENDBRANCH  23  24
ENDBRANCH  22  23
ENDBRANCH  12  22
BRANCH  12  26
ATOM     26  C16 F02     1     145.160  96.018 132.045  0.00  0.00    +0.134 C 
BRANCH  26  27
ATOM     27  C17 F02     1     146.018  96.479 130.840  0.00  0.00    +0.178 C 
BRANCH  27  28
ATOM     28  O2  F02     1     145.825  97.887 130.622  0.00  0.00    -0.381 OA
ATOM     29  C18 F02     1     145.352  98.230 129.310  0.00  0.00    +0.194 C 
ENDBRANCH  27  28
ENDBRANCH  26  27
ENDBRANCH  12  26
TORSDOF 7
ENDMDL
MODEL 2
REMARK VINA RESULT:    -6.698      3.431      6.930
REMARK INTER + INTRA:         -10.659
REMARK INTER:                 -10.092
REMARK INTRA:                  -0.567
REMARK UNBOUND:                -1.220
REMARK  Name = ligands_pdb/F3_CHEMBL14006.pdb
REMARK  9 active torsions:
REMARK  status: ('A' for Active; 'I' for Inactive)
REMARK    1  A    between atoms: C3_5  and  C4_6
REMARK    2  A    between atoms: N3_21  and  C13_22
REMARK    3  A    between atoms: N3_21  and  C16_33
REMARK    4  A    between atoms: C13_22  and  C14_25
REMARK    5  A    between atoms: C14_25  and  O1_28
REMARK    6  A    between atoms: O1_28  and  C15_29
REMARK    7  A    between atoms: C16_33  and  C17_36
REMARK    8  A    between atoms: C17_36  and  O2_39
REMARK    9  A    between atoms: O2_39  and  C18_40
REMARK                            x       y       z     vdW  Elec       q    Type
REMARK                         _______ _______ _______ _____ _____    ______ ____
ROOT
ATOM      1  C4  F02     1     144.429  96.646 134.532  0.00  0.00    +0.185 A 
ATOM      2  N1  F02     1     145.682  96.227 134.465  0.00  0.00    -0.127 NA
ATOM      3  N2  F02     1     146.107  96.335 133.165  0.00  0.00    -0.127 NA
ATOM      4  C5  F02     1     145.102  96.841 132.479  0.00  0.00    +0.186 A 
ATOM      5  C6  F02     1     145.028  97.126 131.062  0.00  0.00    +0.031 A 
ATOM      6  C7  F02     1     146.072  96.833 130.166  0.00  0.00    +0.012 A 
ATOM      7  C8  F02     1     145.899  97.075 128.796  0.00  0.00    +0.001 A 
ATOM      8  C9  F02     1     144.680  97.590 128.329  0.00  0.00    +0.001 A 
ATOM      9  C10 F02     1     143.642  97.880 129.231  0.00  0.00    +0.012 A 
ATOM     10  C11 F02     1     143.812  97.677 130.618  0.00  0.00    +0.027 A 
ATOM     11  C12 F02     1     142.750  97.971 131.621  0.00  0.00    +0.150 A 
ATOM     12  N3  F02     1     141.604  98.676 131.264  0.00  0.00    -0.309 N 
ATOM     13  N4  F02     1     142.831  97.639 132.918  0.00  0.00    -0.147 NA
ATOM     14  N5  F02     1     144.018  97.066 133.281  0.00  0.00    -0.190 N 
ENDROOT
BRANCH   1  17
ATOM     15  C1  F02     1     143.326  95.984 138.092  0.00  0.00    +0.039 A 
ATOM     16  C2  F02     1     144.072  95.961 136.901  0.00  0.00    +0.014 A 
ATOM     17  C3  F02     1     143.640  96.683 135.770  0.00  0.00    +0.021 A 
ATOM     18  C19 F02     1     142.436  97.415 135.847  0.00  0.00    +0.014 A 
ATOM     19  C20 F02     1     141.689  97.438 137.036  0.00  0.00    +0.039 A 
ATOM     20  C21 F02     1     142.138  96.725 138.158  0.00  0.00    +0.123 A 
ATOM     21  F1  F02     1     141.421  96.748 139.299  0.00  0.00    -0.205 F 
ENDBRANCH   1  17
BRANCH  12  22
ATOM     22  C13 F02     1     140.276  98.309 131.825  0.00  0.00    +0.134 C 
BRANCH  22  23
ATOM     23  C14 F02     1     139.514  97.227 131.017  0.00  0.00    +0.178 C 
BRANCH  23  24
ATOM     24  O1  F02     1     139.118  97.757 129.741  0.00  0.00    -0.381 OA
ATOM     25  C15 F02     1     139.725  97.112 128.612  0.00  0.00    +0.194 C 
ENDBRANCH  23  24
ENDBRANCH  22  23
ENDBRANCH  12  22
BRANCH  12  26
ATOM     26  C16 F02     1     141.714 100.042 130.689  0.00  0.00    +0.134 C 
BRANCH  26  27
ATOM     27  C17 F02     1     140.394 100.850 130.747  0.00  0.00    +0.178 C 
BRANCH  27  28
ATOM     28  O2  F02     1     140.278 101.670 129.572  0.00  0.00    -0.381 OA
ATOM     29  C18 F02     1     140.227 100.941 128.335  0.00  0.00    +0.194 C 
ENDBRANCH  27  28
ENDBRANCH  26  27
ENDBRANCH  12  26
TORSDOF 7
ENDMDL
MODEL 3
REMARK VINA RESULT:    -6.575      2.859      6.378
REMARK INTER + INTRA:         -10.486
REMARK INTER:                  -9.890
REMARK INTRA:                  -0.596
REMARK UNBOUND:                -1.220
REMARK  Name = ligands_pdb/F3_CHEMBL14006.pdb
REMARK  9 active torsions:
REMARK  status: ('A' for Active; 'I' for Inactive)
REMARK    1  A    between atoms: C3_5  and  C4_6
REMARK    2  A    between atoms: N3_21  and  C13_22
REMARK    3  A    between atoms: N3_21  and  C16_33
REMARK    4  A    between atoms: C13_22  and  C14_25
REMARK    5  A    between atoms: C14_25  and  O1_28
REMARK    6  A    between atoms: O1_28  and  C15_29
REMARK    7  A    between atoms: C16_33  and  C17_36
REMARK    8  A    between atoms: C17_36  and  O2_39
REMARK    9  A    between atoms: O2_39  and  C18_40
REMARK                            x       y       z     vdW  Elec       q    Type
REMARK                         _______ _______ _______ _____ _____    ______ ____
ROOT
ATOM      1  C4  F02     1     141.944  98.639 133.869  0.00  0.00    +0.185 A 
ATOM      2  N1  F02     1     140.938  99.486 134.017  0.00  0.00    -0.127 NA
ATOM      3  N2  F02     1     140.670 100.060 132.801  0.00  0.00    -0.127 NA
ATOM      4  C5  F02     1     141.510  99.528 131.937  0.00  0.00    +0.186 A 
ATOM      5  C6  F02     1     141.658  99.813 130.527  0.00  0.00    +0.031 A 
ATOM      6  C7  F02     1     140.906 100.798 129.861  0.00  0.00    +0.012 A 
ATOM      7  C8  F02     1     141.154 101.064 128.508  0.00  0.00    +0.001 A 
ATOM      8  C9  F02     1     142.163 100.359 127.833  0.00  0.00    +0.001 A 
ATOM      9  C10 F02     1     142.909  99.376 128.505  0.00  0.00    +0.012 A 
ATOM     10  C11 F02     1     142.648  99.069 129.858  0.00  0.00    +0.027 A 
ATOM     11  C12 F02     1     143.402  98.034 130.620  0.00  0.00    +0.150 A 
ATOM     12  N3  F02     1     144.262  97.153 129.970  0.00  0.00    -0.309 N 
ATOM     13  N4  F02     1     143.281  97.838 131.941  0.00  0.00    -0.147 NA
ATOM     14  N5  F02     1     142.336  98.621 132.543  0.00  0.00    -0.190 N 
ENDROOT
BRANCH   1  17
ATOM     15  C1  F02     1     142.274  96.829 137.177  0.00  0.00    +0.039 A 
ATOM     16  C2  F02     1     141.749  97.598 136.124  0.00  0.00    +0.014 A 
ATOM     17  C3  F02     1     142.507  97.831 134.958  0.00  0.00    +0.021 A 
ATOM     18  C19 F02     1     143.809  97.296 134.872  0.00  0.00    +0.014 A 
ATOM     19  C20 F02     1     144.336  96.528 135.924  0.00  0.00    +0.039 A 
ATOM     20  C21 F02     1     143.566  96.293 137.073  0.00  0.00    +0.123 A 
ATOM     21  F1  F02     1     144.071  95.555 138.082  0.00  0.00    -0.205 F 
ENDBRANCH   1  17
BRANCH  12  22
ATOM     22  C13 F02     1     145.553  96.748 130.591  0.00  0.00    +0.134 C 
BRANCH  22  23
ATOM     23  C14 F02     1     146.791  96.924 129.673  0.00  0.00    +0.178 C 
BRANCH  23  24
ATOM     24  O1  F02     1     147.988  96.958 130.467  0.00  0.00    -0.381 OA
ATOM     25  C15 F02     1     148.388  95.686 130.998  0.00  0.00    +0.194 C 
ENDBRANCH  23  24
ENDBRANCH  22  23
ENDBRANCH  12  22
BRANCH  12  26
ATOM     26  C16 F02     1     143.752  96.269 128.891  0.00  0.00    +0.134 C 
BRANCH  26  27
ATOM     27  C17 F02     1     143.273  94.885 129.394  0.00  0.00    +0.178 C 
BRANCH  27  28
ATOM     28  O2  F02     1     141.963  95.009 129.974  0.00  0.00    -0.381 OA
ATOM     29  C18 F02     1     141.864  94.551 131.332  0.00  0.00    +0.194 C 
ENDBRANCH  27  28
ENDBRANCH  26  27
ENDBRANCH  12  26
TORSDOF 7
ENDMDL
MODEL 4
REMARK VINA RESULT:    -6.550      1.800      2.654
REMARK INTER + INTRA:         -10.451
REMARK INTER:                  -9.479
REMARK INTRA:                  -0.972
REMARK UNBOUND:                -1.220
REMARK  Name = ligands_pdb/F3_CHEMBL14006.pdb
REMARK  9 active torsions:
REMARK  status: ('A' for Active; 'I' for Inactive)
REMARK    1  A    between atoms: C3_5  and  C4_6
REMARK    2  A    between atoms: N3_21  and  C13_22
REMARK    3  A    between atoms: N3_21  and  C16_33
REMARK    4  A    between atoms: C13_22  and  C14_25
REMARK    5  A    between atoms: C14_25  and  O1_28
REMARK    6  A    between atoms: O1_28  and  C15_29
REMARK    7  A    between atoms: C16_33  and  C17_36
REMARK    8  A    between atoms: C17_36  and  O2_39
REMARK    9  A    between atoms: O2_39  and  C18_40
REMARK                            x       y       z     vdW  Elec       q    Type
REMARK                         _______ _______ _______ _____ _____    ______ ____
ROOT
ATOM      1  C4  F02     1     140.792  98.826 133.026  0.00  0.00    +0.185 A 
ATOM      2  N1  F02     1     139.948  99.288 133.934  0.00  0.00    -0.127 NA
ATOM      3  N2  F02     1     140.329  98.813 135.162  0.00  0.00    -0.127 NA
ATOM      4  C5  F02     1     141.413  98.089 134.970  0.00  0.00    +0.186 A 
ATOM      5  C6  F02     1     142.189  97.348 135.940  0.00  0.00    +0.031 A 
ATOM      6  C7  F02     1     141.834  97.259 137.299  0.00  0.00    +0.012 A 
ATOM      7  C8  F02     1     142.599  96.466 138.165  0.00  0.00    +0.001 A 
ATOM      8  C9  F02     1     143.700  95.753 137.666  0.00  0.00    +0.001 A 
ATOM      9  C10 F02     1     144.048  95.848 136.308  0.00  0.00    +0.012 A 
ATOM     10  C11 F02     1     143.312  96.671 135.429  0.00  0.00    +0.027 A 
ATOM     11  C12 F02     1     143.637  96.816 133.982  0.00  0.00    +0.150 A 
ATOM     12  N3  F02     1     144.829  96.316 133.464  0.00  0.00    -0.309 N 
ATOM     13  N4  F02     1     142.862  97.462 133.100  0.00  0.00    -0.147 NA
ATOM     14  N5  F02     1     141.761  98.061 133.648  0.00  0.00    -0.190 N 
ENDROOT
BRANCH   1  17
ATOM     15  C1  F02     1     139.754  98.657 129.390  0.00  0.00    +0.039 A 
ATOM     16  C2  F02     1     139.846  98.380 130.764  0.00  0.00    +0.014 A 
ATOM     17  C3  F02     1     140.706  99.130 131.591  0.00  0.00    +0.021 A 
ATOM     18  C19 F02     1     141.489 100.152 131.014  0.00  0.00    +0.014 A 
ATOM     19  C20 F02     1     141.400 100.429 129.639  0.00  0.00    +0.039 A 
ATOM     20  C21 F02     1     140.530  99.683 128.831  0.00  0.00    +0.123 A 
ATOM     21  F1  F02     1     140.443  99.950 127.512  0.00  0.00    -0.205 F 
ENDBRANCH   1  17
BRANCH  12  22
ATOM     22  C13 F02     1     144.868  95.678 132.120  0.00  0.00    +0.134 C 
BRANCH  22  23
ATOM     23  C14 F02     1     145.567  96.527 131.026  0.00  0.00    +0.178 C 
BRANCH  23  24
ATOM     24  O1  F02     1     144.586  97.264 130.277  0.00  0.00    -0.381 OA
ATOM     25  C15 F02     1     144.863  98.666 130.148  0.00  0.00    +0.194 C 
ENDBRANCH  23  24
ENDBRANCH  22  23
ENDBRANCH  12  22
BRANCH  12  26
ATOM     26  C16 F02     1     146.133  96.778 134.005  0.00  0.00    +0.134 C 
BRANCH  26  27
ATOM     27  C17 F02     1     147.243  95.698 133.961  0.00  0.00    +0.178 C 
BRANCH  27  28
ATOM     28  O2  F02     1     148.359  96.184 133.197  0.00  0.00    -0.381 OA
ATOM     29  C18 F02     1     148.883  95.248 132.242  0.00  0.00    +0.194 C 
ENDBRANCH  27  28
ENDBRANCH  26  27
ENDBRANCH  12  26
TORSDOF 7
ENDMDL
MODEL 5
REMARK VINA RESULT:    -6.433      3.293      6.849
REMARK INTER + INTRA:         -10.286
REMARK INTER:                  -9.550
REMARK INTRA:                  -0.736
REMARK UNBOUND:                -1.220
REMARK  Name = ligands_pdb/F3_CHEMBL14006.pdb
REMARK  9 active torsions:
REMARK  status: ('A' for Active; 'I' for Inactive)
REMARK    1  A    between atoms: C3_5  and  C4_6
REMARK    2  A    between atoms: N3_21  and  C13_22
REMARK    3  A    between atoms: N3_21  and  C16_33
REMARK    4  A    between atoms: C13_22  and  C14_25
REMARK    5  A    between atoms: C14_25  and  O1_28
REMARK    6  A    between atoms: O1_28  and  C15_29
REMARK    7  A    between atoms: C16_33  and  C17_36
REMARK    8  A    between atoms: C17_36  and  O2_39
REMARK    9  A    between atoms: O2_39  and  C18_40
REMARK                            x       y       z     vdW  Elec       q    Type
REMARK                         _______ _______ _______ _____ _____    ______ ____
ROOT
ATOM      1  C4  F02     1     144.885  96.448 133.445  0.00  0.00    +0.185 A 
ATOM      2  N1  F02     1     146.187  96.213 133.479  0.00  0.00    -0.127 NA
ATOM      3  N2  F02     1     146.641  96.097 132.191  0.00  0.00    -0.127 NA
ATOM      4  C5  F02     1     145.602  96.287 131.404  0.00  0.00    +0.186 A 
ATOM      5  C6  F02     1     145.542  96.242 129.959  0.00  0.00    +0.031 A 
ATOM      6  C7  F02     1     146.651  95.918 129.156  0.00  0.00    +0.012 A 
ATOM      7  C8  F02     1     146.498  95.828 127.766  0.00  0.00    +0.001 A 
ATOM      8  C9  F02     1     145.237  96.043 127.189  0.00  0.00    +0.001 A 
ATOM      9  C10 F02     1     144.134  96.366 127.998  0.00  0.00    +0.012 A 
ATOM     10  C11 F02     1     144.278  96.498 129.396  0.00  0.00    +0.027 A 
ATOM     11  C12 F02     1     143.148  96.844 130.303  0.00  0.00    +0.150 A 
ATOM     12  N3  F02     1     141.927  97.278 129.792  0.00  0.00    -0.309 N 
ATOM     13  N4  F02     1     143.225  96.818 131.641  0.00  0.00    -0.147 NA
ATOM     14  N5  F02     1     144.467  96.519 132.130  0.00  0.00    -0.190 N 
ENDROOT
BRANCH   1  17
ATOM     15  C1  F02     1     142.070  97.606 135.695  0.00  0.00    +0.039 A 
ATOM     16  C2  F02     1     142.876  97.413 134.560  0.00  0.00    +0.014 A 
ATOM     17  C3  F02     1     144.051  96.638 134.640  0.00  0.00    +0.021 A 
ATOM     18  C19 F02     1     144.416  96.075 135.881  0.00  0.00    +0.014 A 
ATOM     19  C20 F02     1     143.611  96.269 137.016  0.00  0.00    +0.039 A 
ATOM     20  C21 F02     1     142.438  97.031 136.920  0.00  0.00    +0.123 A 
ATOM     21  F1  F02     1     141.665  97.217 138.009  0.00  0.00    -0.205 F 
ENDBRANCH   1  17
BRANCH  12  22
ATOM     22  C13 F02     1     140.644  96.850 130.412  0.00  0.00    +0.134 C 
BRANCH  22  23
ATOM     23  C14 F02     1     139.804  98.008 131.013  0.00  0.00    +0.178 C 
BRANCH  23  24
ATOM     24  O1  F02     1     140.339  98.388 132.292  0.00  0.00    -0.381 OA
ATOM     25  C15 F02     1     140.867  99.720 132.346  0.00  0.00    +0.194 C 
ENDBRANCH  23  24
ENDBRANCH  22  23
ENDBRANCH  12  22
BRANCH  12  26
ATOM     26  C16 F02     1     141.864  98.486 128.929  0.00  0.00    +0.134 C 
BRANCH  26  27
ATOM     27  C17 F02     1     140.991  98.302 127.663  0.00  0.00    +0.178 C 
BRANCH  27  28
ATOM     28  O2  F02     1     140.504  99.580 127.222  0.00  0.00    -0.381 OA
ATOM     29  C18 F02     1     140.336 100.550 128.268  0.00  0.00    +0.194 C 
ENDBRANCH  27  28
ENDBRANCH  26  27
ENDBRANCH  12  26
TORSDOF 7
ENDMDL
MODEL 6
REMARK VINA RESULT:    -6.415      3.137      6.469
REMARK INTER + INTRA:         -10.260
REMARK INTER:                  -9.511
REMARK INTRA:                  -0.749
REMARK UNBOUND:                -1.220
REMARK  Name = ligands_pdb/F3_CHEMBL14006.pdb
REMARK  9 active torsions:
REMARK  status: ('A' for Active; 'I' for Inactive)
REMARK    1  A    between atoms: C3_5  and  C4_6
REMARK    2  A    between atoms: N3_21  and  C13_22
REMARK    3  A    between atoms: N3_21  and  C16_33
REMARK    4  A    between atoms: C13_22  and  C14_25
REMARK    5  A    between atoms: C14_25  and  O1_28
REMARK    6  A    between atoms: O1_28  and  C15_29
REMARK    7  A    between atoms: C16_33  and  C17_36
REMARK    8  A    between atoms: C17_36  and  O2_39
REMARK    9  A    between atoms: O2_39  and  C18_40
REMARK                            x       y       z     vdW  Elec       q    Type
REMARK                         _______ _______ _______ _____ _____    ______ ____
ROOT
ATOM      1  C4  F02     1     142.072  98.695 133.603  0.00  0.00    +0.185 A 
ATOM      2  N1  F02     1     141.275  99.570 134.194  0.00  0.00    -0.127 NA
ATOM      3  N2  F02     1     140.601 100.267 133.225  0.00  0.00    -0.127 NA
ATOM      4  C5  F02     1     140.991  99.779 132.065  0.00  0.00    +0.186 A 
ATOM      5  C6  F02     1     140.599 100.187 130.734  0.00  0.00    +0.031 A 
ATOM      6  C7  F02     1     139.728 101.265 130.489  0.00  0.00    +0.012 A 
ATOM      7  C8  F02     1     139.448 101.644 129.168  0.00  0.00    +0.001 A 
ATOM      8  C9  F02     1     140.054 100.958 128.104  0.00  0.00    +0.001 A 
ATOM      9  C10 F02     1     140.922  99.883 128.358  0.00  0.00    +0.012 A 
ATOM     10  C11 F02     1     141.186  99.464 129.680  0.00  0.00    +0.027 A 
ATOM     11  C12 F02     1     142.093  98.328 130.010  0.00  0.00    +0.150 A 
ATOM     12  N3  F02     1     142.558  97.472 129.015  0.00  0.00    -0.309 N 
ATOM     13  N4  F02     1     142.482  98.015 131.254  0.00  0.00    -0.147 NA
ATOM     14  N5  F02     1     141.913  98.782 132.233  0.00  0.00    -0.190 N 
ENDROOT
BRANCH   1  17
ATOM     15  C1  F02     1     145.136  96.701 134.585  0.00  0.00    +0.039 A 
ATOM     16  C2  F02     1     144.286  97.591 133.909  0.00  0.00    +0.014 A 
ATOM     17  C3  F02     1     142.949  97.763 134.324  0.00  0.00    +0.021 A 
ATOM     18  C19 F02     1     142.473  97.011 135.419  0.00  0.00    +0.014 A 
ATOM     19  C20 F02     1     143.321  96.120 136.096  0.00  0.00    +0.039 A 
ATOM     20  C21 F02     1     144.653  95.969 135.680  0.00  0.00    +0.123 A 
ATOM     21  F1  F02     1     145.467  95.114 136.330  0.00  0.00    -0.205 F 
ENDBRANCH   1  17
BRANCH  12  22
ATOM     22  C13 F02     1     143.952  96.951 129.046  0.00  0.00    +0.134 C 
BRANCH  22  23
ATOM     23  C14 F02     1     145.047  98.036 128.879  0.00  0.00    +0.178 C 
BRANCH  23  24
ATOM     24  O1  F02     1     146.009  97.929 129.941  0.00  0.00    -0.381 OA
ATOM     25  C15 F02     1     146.881  96.794 129.843  0.00  0.00    +0.194 C 
ENDBRANCH  23  24
ENDBRANCH  22  23
ENDBRANCH  12  22
BRANCH  12  26
ATOM     26  C16 F02     1     141.598  96.717 128.168  0.00  0.00    +0.134 C 
BRANCH  26  27
ATOM     27  C17 F02     1     142.079  96.516 126.710  0.00  0.00    +0.178 C 
BRANCH  27  28
ATOM     28  O2  F02     1     141.442  97.480 125.854  0.00  0.00    -0.381 OA
ATOM     29  C18 F02     1     140.038  97.258 125.644  0.00  0.00    +0.194 C 
ENDBRANCH  27  28
ENDBRANCH  26  27
ENDBRANCH  12  26
TORSDOF 7
ENDMDL
MODEL 7
REMARK VINA RESULT:    -6.410      2.960      3.769
REMARK INTER + INTRA:         -10.254
REMARK INTER:                  -8.944
REMARK INTRA:                  -1.309
REMARK UNBOUND:                -1.220
REMARK  Name = ligands_pdb/F3_CHEMBL14006.pdb
REMARK  9 active torsions:
REMARK  status: ('A' for Active; 'I' for Inactive)
REMARK    1  A    between atoms: C3_5  and  C4_6
REMARK    2  A    between atoms: N3_21  and  C13_22
REMARK    3  A    between atoms: N3_21  and  C16_33
REMARK    4  A    between atoms: C13_22  and  C14_25
REMARK    5  A    between atoms: C14_25  and  O1_28
REMARK    6  A    between atoms: O1_28  and  C15_29
REMARK    7  A    between atoms: C16_33  and  C17_36
REMARK    8  A    between atoms: C17_36  and  O2_39
REMARK    9  A    between atoms: O2_39  and  C18_40
REMARK                            x       y       z     vdW  Elec       q    Type
REMARK                         _______ _______ _______ _____ _____    ______ ____
ROOT
ATOM      1  C4  F02     1     139.491  98.169 128.454  0.00  0.00    +0.185 A 
ATOM      2  N1  F02     1     138.933  99.359 128.603  0.00  0.00    -0.127 NA
ATOM      3  N2  F02     1     139.251  99.835 129.849  0.00  0.00    -0.127 NA
ATOM      4  C5  F02     1     140.017  98.926 130.418  0.00  0.00    +0.186 A 
ATOM      5  C6  F02     1     140.597  98.934 131.744  0.00  0.00    +0.031 A 
ATOM      6  C7  F02     1     140.361  99.959 132.677  0.00  0.00    +0.012 A 
ATOM      7  C8  F02     1     140.903  99.862 133.966  0.00  0.00    +0.001 A 
ATOM      8  C9  F02     1     141.660  98.735 134.320  0.00  0.00    +0.001 A 
ATOM      9  C10 F02     1     141.891  97.715 133.381  0.00  0.00    +0.012 A 
ATOM     10  C11 F02     1     141.384  97.813 132.068  0.00  0.00    +0.027 A 
ATOM     11  C12 F02     1     141.601  96.767 131.029  0.00  0.00    +0.150 A 
ATOM     12  N3  F02     1     142.511  95.733 131.235  0.00  0.00    -0.309 N 
ATOM     13  N4  F02     1     141.000  96.763 129.831  0.00  0.00    -0.147 NA
ATOM     14  N5  F02     1     140.212  97.854 129.591  0.00  0.00    -0.190 N 
ENDROOT
BRANCH   1  17
ATOM     15  C1  F02     1     138.198  95.632 125.960  0.00  0.00    +0.039 A 
ATOM     16  C2  F02     1     138.321  96.423 127.115  0.00  0.00    +0.014 A 
ATOM     17  C3  F02     1     139.375  97.352 127.239  0.00  0.00    +0.021 A 
ATOM     18  C19 F02     1     140.316  97.461 126.194  0.00  0.00    +0.014 A 
ATOM     19  C20 F02     1     140.195  96.669 125.039  0.00  0.00    +0.039 A 
ATOM     20  C21 F02     1     139.133  95.759 124.923  0.00  0.00    +0.123 A 
ATOM     21  F1  F02     1     139.017  95.000 123.815  0.00  0.00    -0.205 F 
ENDBRANCH   1  17
BRANCH  12  22
ATOM     22  C13 F02     1     142.214  94.351 130.769  0.00  0.00    +0.134 C 
BRANCH  22  23
ATOM     23  C14 F02     1     143.272  93.759 129.802  0.00  0.00    +0.178 C 
BRANCH  23  24
ATOM     24  O1  F02     1     142.839  93.924 128.441  0.00  0.00    -0.381 OA
ATOM     25  C15 F02     1     143.486  94.991 127.735  0.00  0.00    +0.194 C 
ENDBRANCH  23  24
ENDBRANCH  22  23
ENDBRANCH  12  22
BRANCH  12  26
ATOM     26  C16 F02     1     143.939  96.036 131.511  0.00  0.00    +0.134 C 
BRANCH  26  27
ATOM     27  C17 F02     1     144.509  97.188 130.646  0.00  0.00    +0.178 C 
BRANCH  27  28
ATOM     28  O2  F02     1     144.887  98.285 131.494  0.00  0.00    -0.381 OA
ATOM     29  C18 F02     1     144.466  99.576 131.026  0.00  0.00    +0.194 C 
ENDBRANCH  27  28
ENDBRANCH  26  27
ENDBRANCH  12  26
TORSDOF 7
ENDMDL
MODEL 8
REMARK VINA RESULT:    -6.336      2.032      2.613
REMARK INTER + INTRA:         -10.149
REMARK INTER:                  -8.992
REMARK INTRA:                  -1.157
REMARK UNBOUND:                -1.220
REMARK  Name = ligands_pdb/F3_CHEMBL14006.pdb
REMARK  9 active torsions:
REMARK  status: ('A' for Active; 'I' for Inactive)
REMARK    1  A    between atoms: C3_5  and  C4_6
REMARK    2  A    between atoms: N3_21  and  C13_22
REMARK    3  A    between atoms: N3_21  and  C16_33
REMARK    4  A    between atoms: C13_22  and  C14_25
REMARK    5  A    between atoms: C14_25  and  O1_28
REMARK    6  A    between atoms: O1_28  and  C15_29
REMARK    7  A    between atoms: C16_33  and  C17_36
REMARK    8  A    between atoms: C17_36  and  O2_39
REMARK    9  A    between atoms: O2_39  and  C18_40
REMARK                            x       y       z     vdW  Elec       q    Type
REMARK                         _______ _______ _______ _____ _____    ______ ____
ROOT
ATOM      1  C4  F02     1     140.626  98.358 130.915  0.00  0.00    +0.185 A 
ATOM      2  N1  F02     1     140.296  99.228 131.856  0.00  0.00    -0.127 NA
ATOM      3  N2  F02     1     141.210  99.134 132.875  0.00  0.00    -0.127 NA
ATOM      4  C5  F02     1     142.088  98.220 132.513  0.00  0.00    +0.186 A 
ATOM      5  C6  F02     1     143.235  97.729 133.245  0.00  0.00    +0.031 A 
ATOM      6  C7  F02     1     143.553  98.155 134.547  0.00  0.00    +0.012 A 
ATOM      7  C8  F02     1     144.642  97.583 135.218  0.00  0.00    +0.001 A 
ATOM      8  C9  F02     1     145.393  96.575 134.593  0.00  0.00    +0.001 A 
ATOM      9  C10 F02     1     145.068  96.154 133.292  0.00  0.00    +0.012 A 
ATOM     10  C11 F02     1     143.999  96.746 132.588  0.00  0.00    +0.027 A 
ATOM     11  C12 F02     1     143.611  96.346 131.205  0.00  0.00    +0.150 A 
ATOM     12  N3  F02     1     144.431  95.514 130.446  0.00  0.00    -0.309 N 
ATOM     13  N4  F02     1     142.508  96.778 130.580  0.00  0.00    -0.147 NA
ATOM     14  N5  F02     1     141.782  97.697 131.287  0.00  0.00    -0.190 N 
ENDROOT
BRANCH   1  17
ATOM     15  C1  F02     1     139.082  99.081 127.536  0.00  0.00    +0.039 A 
ATOM     16  C2  F02     1     139.796  99.237 128.736  0.00  0.00    +0.014 A 
ATOM     17  C3  F02     1     139.879  98.178 129.663  0.00  0.00    +0.021 A 
ATOM     18  C19 F02     1     139.219  96.965 129.376  0.00  0.00    +0.014 A 
ATOM     19  C20 F02     1     138.504  96.808 128.177  0.00  0.00    +0.039 A 
ATOM     20  C21 F02     1     138.441  97.865 127.257  0.00  0.00    +0.123 A 
ATOM     21  F1  F02     1     137.755  97.714 126.106  0.00  0.00    -0.205 F 
ENDBRANCH   1  17
BRANCH  12  22
ATOM     22  C13 F02     1     143.848  94.468 129.563  0.00  0.00    +0.134 C 
BRANCH  22  23
ATOM     23  C14 F02     1     143.814  94.843 128.058  0.00  0.00    +0.178 C 
BRANCH  23  24
ATOM     24  O1  F02     1     142.454  95.021 127.628  0.00  0.00    -0.381 OA
ATOM     25  C15 F02     1     142.167  96.312 127.073  0.00  0.00    +0.194 C 
ENDBRANCH  23  24
ENDBRANCH  22  23
ENDBRANCH  12  22
BRANCH  12  26
ATOM     26  C16 F02     1     145.832  95.911 130.150  0.00  0.00    +0.134 C 
BRANCH  26  27
ATOM     27  C17 F02     1     146.016  97.434 129.937  0.00  0.00    +0.178 C 
BRANCH  27  28
ATOM     28  O2  F02     1     145.341  97.838 128.734  0.00  0.00    -0.381 OA
ATOM     29  C18 F02     1     144.598  99.062 128.846  0.00  0.00    +0.194 C 
ENDBRANCH  27  28
ENDBRANCH  26  27
ENDBRANCH  12  26
TORSDOF 7
ENDMDL
MODEL 9
REMARK VINA RESULT:    -6.319      1.619      1.991
REMARK INTER + INTRA:         -10.125
REMARK INTER:                  -9.016
REMARK INTRA:                  -1.109
REMARK UNBOUND:                -1.220
REMARK  Name = ligands_pdb/F3_CHEMBL14006.pdb
REMARK  9 active torsions:
REMARK  status: ('A' for Active; 'I' for Inactive)
REMARK    1  A    between atoms: C3_5  and  C4_6
REMARK    2  A    between atoms: N3_21  and  C13_22
REMARK    3  A    between atoms: N3_21  and  C16_33
REMARK    4  A    between atoms: C13_22  and  C14_25
REMARK    5  A    between atoms: C14_25  and  O1_28
REMARK    6  A    between atoms: O1_28  and  C15_29
REMARK    7  A    between atoms: C16_33  and  C17_36
REMARK    8  A    between atoms: C17_36  and  O2_39
REMARK    9  A    between atoms: O2_39  and  C18_40
REMARK                            x       y       z     vdW  Elec       q    Type
REMARK                         _______ _______ _______ _____ _____    ______ ____
ROOT
ATOM      1  C4  F02     1     141.233  99.432 131.182  0.00  0.00    +0.185 A 
ATOM      2  N1  F02     1     140.887 100.136 132.247  0.00  0.00    -0.127 NA
ATOM      3  N2  F02     1     141.700  99.774 133.290  0.00  0.00    -0.127 NA
ATOM      4  C5  F02     1     142.537  98.870 132.822  0.00  0.00    +0.186 A 
ATOM      5  C6  F02     1     143.577  98.152 133.526  0.00  0.00    +0.031 A 
ATOM      6  C7  F02     1     143.812  98.299 134.905  0.00  0.00    +0.012 A 
ATOM      7  C8  F02     1     144.794  97.518 135.529  0.00  0.00    +0.001 A 
ATOM      8  C9  F02     1     145.520  96.582 134.777  0.00  0.00    +0.001 A 
ATOM      9  C10 F02     1     145.280  96.441 133.400  0.00  0.00    +0.012 A 
ATOM     10  C11 F02     1     144.321  97.245 132.748  0.00  0.00    +0.027 A 
ATOM     11  C12 F02     1     144.027  97.145 131.290  0.00  0.00    +0.150 A 
ATOM     12  N3  F02     1     144.846  96.400 130.445  0.00  0.00    -0.309 N 
ATOM     13  N4  F02     1     143.016  97.782 130.683  0.00  0.00    -0.147 NA
ATOM     14  N5  F02     1     142.301  98.614 131.500  0.00  0.00    -0.190 N 
ENDROOT
BRANCH   1  17
ATOM     15  C1  F02     1     139.052  98.666 128.184  0.00  0.00    +0.039 A 
ATOM     16  C2  F02     1     139.677  98.566 129.438  0.00  0.00    +0.014 A 
ATOM     17  C3  F02     1     140.586  99.554 129.868  0.00  0.00    +0.021 A 
ATOM     18  C19 F02     1     140.874 100.637 129.011  0.00  0.00    +0.014 A 
ATOM     19  C20 F02     1     140.251 100.738 127.756  0.00  0.00    +0.039 A 
ATOM     20  C21 F02     1     139.338  99.755 127.346  0.00  0.00    +0.123 A 
ATOM     21  F1  F02     1     138.740  99.852 126.142  0.00  0.00    -0.205 F 
ENDBRANCH   1  17
BRANCH  12  22
ATOM     22  C13 F02     1     144.266  95.592 129.338  0.00  0.00    +0.134 C 
BRANCH  22  23
ATOM     23  C14 F02     1     143.627  94.252 129.787  0.00  0.00    +0.178 C 
BRANCH  23  24
ATOM     24  O1  F02     1     142.213  94.423 129.976  0.00  0.00    -0.381 OA
ATOM     25  C15 F02     1     141.784  94.376 131.344  0.00  0.00    +0.194 C 
ENDBRANCH  23  24
ENDBRANCH  22  23
ENDBRANCH  12  22
BRANCH  12  26
ATOM     26  C16 F02     1     146.292  96.720 130.332  0.00  0.00    +0.134 C 
BRANCH  26  27
ATOM     27  C17 F02     1     147.188  95.477 130.101  0.00  0.00    +0.178 C 
BRANCH  27  28
ATOM     28  O2  F02     1     147.792  95.080 131.343  0.00  0.00    -0.381 OA
ATOM     29  C18 F02     1     147.389  93.786 131.818  0.00  0.00    +0.194 C 
ENDBRANCH  27  28
ENDBRANCH  26  27
ENDBRANCH  12  26
TORSDOF 7
ENDMDL
MODEL 10
REMARK VINA RESULT:    -6.204      2.563      5.011
REMARK INTER + INTRA:          -9.963
REMARK INTER:                  -8.998
REMARK INTRA:                  -0.966
REMARK UNBOUND:                -1.220
REMARK  Name = ligands_pdb/F3_CHEMBL14006.pdb
REMARK  9 active torsions:
REMARK  status: ('A' for Active; 'I' for Inactive)
REMARK    1  A    between atoms: C3_5  and  C4_6
REMARK    2  A    between atoms: N3_21  and  C13_22
REMARK    3  A    between atoms: N3_21  and  C16_33
REMARK    4  A    between atoms: C13_22  and  C14_25
REMARK    5  A    between atoms: C14_25  and  O1_28
REMARK    6  A    between atoms: O1_28  and  C15_29
REMARK    7  A    between atoms: C16_33  and  C17_36
REMARK    8  A    between atoms: C17_36  and  O2_39
REMARK    9  A    between atoms: O2_39  and  C18_40
REMARK                            x       y       z     vdW  Elec       q    Type
REMARK                         _______ _______ _______ _____ _____    ______ ____
ROOT
ATOM      1  C4  F02     1     142.572  96.633 129.057  0.00  0.00    +0.185 A 
ATOM      2  N1  F02     1     143.166  95.773 128.247  0.00  0.00    -0.127 NA
ATOM      3  N2  F02     1     144.221  95.206 128.914  0.00  0.00    -0.127 NA
ATOM      4  C5  F02     1     144.226  95.723 130.126  0.00  0.00    +0.186 A 
ATOM      5  C6  F02     1     145.151  95.477 131.211  0.00  0.00    +0.031 A 
ATOM      6  C7  F02     1     146.270  94.634 131.086  0.00  0.00    +0.012 A 
ATOM      7  C8  F02     1     147.159  94.499 132.161  0.00  0.00    +0.001 A 
ATOM      8  C9  F02     1     146.936  95.220 133.344  0.00  0.00    +0.001 A 
ATOM      9  C10 F02     1     145.815  96.060 133.460  0.00  0.00    +0.012 A 
ATOM     10  C11 F02     1     144.890  96.179 132.402  0.00  0.00    +0.027 A 
ATOM     11  C12 F02     1     143.681  97.049 132.469  0.00  0.00    +0.150 A 
ATOM     12  N3  F02     1     143.280  97.623 133.673  0.00  0.00    -0.309 N 
ATOM     13  N4  F02     1     142.878  97.301 131.425  0.00  0.00    -0.147 NA
ATOM     14  N5  F02     1     143.209  96.625 130.283  0.00  0.00    -0.190 N 
ENDROOT
BRANCH   1  17
ATOM     15  C1  F02     1     138.965  97.628 128.480  0.00  0.00    +0.039 A 
ATOM     16  C2  F02     1     140.102  96.880 128.830  0.00  0.00    +0.014 A 
ATOM     17  C3  F02     1     141.393  97.430 128.690  0.00  0.00    +0.021 A 
ATOM     18  C19 F02     1     141.527  98.736 128.175  0.00  0.00    +0.014 A 
ATOM     19  C20 F02     1     140.391  99.485 127.823  0.00  0.00    +0.039 A 
ATOM     20  C21 F02     1     139.112  98.930 127.980  0.00  0.00    +0.123 A 
ATOM     21  F1  F02     1     138.022  99.649 127.644  0.00  0.00    -0.205 F 
ENDBRANCH   1  17
BRANCH  12  22
ATOM     22  C13 F02     1     142.734  99.008 133.713  0.00  0.00    +0.134 C 
BRANCH  22  23
ATOM     23  C14 F02     1     141.199  99.087 133.922  0.00  0.00    +0.178 C 
BRANCH  23  24
ATOM     24  O1  F02     1     140.670 100.232 133.233  0.00  0.00    -0.381 OA
ATOM     25  C15 F02     1     140.630 100.102 131.804  0.00  0.00    +0.194 C 
ENDBRANCH  23  24
ENDBRANCH  22  23
ENDBRANCH  12  22
BRANCH  12  26
ATOM     26  C16 F02     1     142.969  96.765 134.845  0.00  0.00    +0.134 C 
BRANCH  26  27
ATOM     27  C17 F02     1     143.630  97.246 136.160  0.00  0.00    +0.178 C 
BRANCH  27  28
ATOM     28  O2  F02     1     142.664  97.216 137.225  0.00  0.00    -0.381 OA
ATOM     29  C18 F02     1     142.820  96.125 138.145  0.00  0.00    +0.194 C 
ENDBRANCH  27  28
ENDBRANCH  26  27
ENDBRANCH  12  26
TORSDOF 7
ENDMDL
