MODEL 1
REMARK VINA RESULT:    -9.519      0.000      0.000
REMARK INTER + INTRA:         -13.273
REMARK INTER:                 -12.580
REMARK INTRA:                  -0.693
REMARK UNBOUND:                -0.693
REMARK  Name = ligands_pdb/F3_CHEMBL28363.pdb
REMARK  6 active torsions:
REMARK  status: ('A' for Active; 'I' for Inactive)
REMARK    1  A    between atoms: O1_2  and  C1_3
REMARK    2  A    between atoms: C4_8  and  O2_9
REMARK    3  A    between atoms: O2_9  and  C5_10
REMARK    4  A    between atoms: C5_10  and  C6_13
REMARK    5  A    between atoms: C15_32  and  C16_34
REMARK    6  A    between atoms: C16_34  and  C17_37
REMARK                            x       y       z     vdW  Elec       q    Type
REMARK                         _______ _______ _______ _____ _____    ______ ____
ROOT
ATOM      1  C1  F06     1     140.697  98.894 133.369  0.00  0.00    +0.155 C 
ATOM      2  C2  F06     1     141.842  98.306 134.186  0.00  0.00    +0.026 A 
ATOM      3  C3  F06     1     141.600  97.781 135.469  0.00  0.00    +0.055 A 
ATOM      4  C4  F06     1     142.650  97.249 136.234  0.00  0.00    +0.122 A 
ATOM      5  C11 F06     1     143.958  97.234 135.708  0.00  0.00    +0.049 A 
ATOM      6  C12 F06     1     144.205  97.752 134.427  0.00  0.00    +0.049 A 
ATOM      7  C13 F06     1     143.155  98.294 133.671  0.00  0.00    +0.126 A 
ATOM      8  O3  F06     1     143.422  98.776 132.407  0.00  0.00    -0.491 OA
ATOM      9  C14 F06     1     142.473  99.613 131.716  0.00  0.00    +0.235 C 
ATOM     10  C15 F06     1     141.066  98.987 131.863  0.00  0.00    +0.064 C 
ENDROOT
BRANCH   1  12
ATOM     11  H1  F06     1     139.444 100.141 134.215  0.00  0.00    +0.210 HD
ATOM     12  O1  F06     1     140.364 100.181 133.897  0.00  0.00    -0.387 OA
ENDBRANCH   1  12
BRANCH   4  13
ATOM     13  O2  F06     1     142.345  96.757 137.486  0.00  0.00    -0.486 OA
BRANCH  13  14
ATOM     14  C5  F06     1     143.345  96.446 138.477  0.00  0.00    +0.284 C 
BRANCH  14  15
ATOM     15  C6  F06     1     143.549  97.633 139.409  0.00  0.00    +0.078 A 
ATOM     16  N1  F06     1     144.629  98.407 139.162  0.00  0.00    -0.256 NA
ATOM     17  C7  F06     1     144.849  99.480 139.950  0.00  0.00    +0.111 A 
ATOM     18  C8  F06     1     144.000  99.831 141.013  0.00  0.00    +0.020 A 
ATOM     19  C9  F06     1     142.874  99.035 141.269  0.00  0.00    +0.003 A 
ATOM     20  C10 F06     1     142.642  97.917 140.451  0.00  0.00    +0.027 A 
ENDBRANCH  14  15
ENDBRANCH  13  14
ENDBRANCH   4  13
BRANCH  10  21
ATOM     21  C16 F06     1     139.993  99.746 131.036  0.00  0.00    +0.046 C 
BRANCH  21  22
ATOM     22  C17 F06     1     139.491  98.946 129.842  0.00  0.00    -0.029 A 
ATOM     23  C18 F06     1     139.203  99.584 128.618  0.00  0.00    +0.114 A 
ATOM     24  N2  F06     1     138.753  98.925 127.532  0.00  0.00    -0.263 NA
ATOM     25  C19 F06     1     138.572  97.592 127.622  0.00  0.00    +0.111 A 
ATOM     26  C20 F06     1     138.833  96.867 128.797  0.00  0.00    +0.020 A 
ATOM     27  C21 F06     1     139.302  97.555 129.927  0.00  0.00    +0.006 A 
ENDBRANCH  21  22
ENDBRANCH  10  21
TORSDOF 6
ENDMDL
MODEL 2
REMARK VINA RESULT:    -8.814      1.254      1.738
REMARK INTER + INTRA:         -12.341
REMARK INTER:                 -11.783
REMARK INTRA:                  -0.558
REMARK UNBOUND:                -0.693
REMARK  Name = ligands_pdb/F3_CHEMBL28363.pdb
REMARK  6 active torsions:
REMARK  status: ('A' for Active; 'I' for Inactive)
REMARK    1  A    between atoms: O1_2  and  C1_3
REMARK    2  A    between atoms: C4_8  and  O2_9
REMARK    3  A    between atoms: O2_9  and  C5_10
REMARK    4  A    between atoms: C5_10  and  C6_13
REMARK    5  A    between atoms: C15_32  and  C16_34
REMARK    6  A    between atoms: C16_34  and  C17_37
REMARK                            x       y       z     vdW  Elec       q    Type
REMARK                         _______ _______ _______ _____ _____    ______ ____
ROOT
ATOM      1  C1  F06     1     140.412  98.981 131.607  0.00  0.00    +0.155 C 
ATOM      2  C2  F06     1     141.582  98.534 132.476  0.00  0.00    +0.026 A 
ATOM      3  C3  F06     1     141.354  98.066 133.783  0.00  0.00    +0.055 A 
ATOM      4  C4  F06     1     142.426  97.664 134.596  0.00  0.00    +0.122 A 
ATOM      5  C11 F06     1     143.742  97.722 134.095  0.00  0.00    +0.049 A 
ATOM      6  C12 F06     1     143.976  98.184 132.790  0.00  0.00    +0.049 A 
ATOM      7  C13 F06     1     142.902  98.597 131.985  0.00  0.00    +0.126 A 
ATOM      8  O3  F06     1     143.159  99.025 130.699  0.00  0.00    -0.491 OA
ATOM      9  C14 F06     1     142.162  99.743 129.945  0.00  0.00    +0.235 C 
ATOM     10  C15 F06     1     140.805  99.017 130.105  0.00  0.00    +0.064 C 
ENDROOT
BRANCH   1  12
ATOM     11  H1  F06     1     140.364 100.428 132.927  0.00  0.00    +0.210 HD
ATOM     12  O1  F06     1     139.969 100.266 132.052  0.00  0.00    -0.387 OA
ENDBRANCH   1  12
BRANCH   4  13
ATOM     13  O2  F06     1     142.133  97.222 135.870  0.00  0.00    -0.486 OA
BRANCH  13  14
ATOM     14  C5  F06     1     143.108  96.602 136.734  0.00  0.00    +0.284 C 
BRANCH  14  15
ATOM     15  C6  F06     1     143.000  97.171 138.142  0.00  0.00    +0.078 A 
ATOM     16  N1  F06     1     144.010  97.978 138.537  0.00  0.00    -0.256 NA
ATOM     17  C7  F06     1     143.958  98.520 139.772  0.00  0.00    +0.111 A 
ATOM     18  C8  F06     1     142.896  98.287 140.662  0.00  0.00    +0.020 A 
ATOM     19  C9  F06     1     141.842  97.456 140.254  0.00  0.00    +0.003 A 
ATOM     20  C10 F06     1     141.894  96.890 138.969  0.00  0.00    +0.027 A 
ENDBRANCH  14  15
ENDBRANCH  13  14
ENDBRANCH   4  13
BRANCH  10  21
ATOM     21  C16 F06     1     139.695  99.639 129.216  0.00  0.00    +0.046 C 
BRANCH  21  22
ATOM     22  C17 F06     1     139.249  98.716 128.090  0.00  0.00    -0.029 A 
ATOM     23  C18 F06     1     139.067  99.210 126.783  0.00  0.00    +0.114 A 
ATOM     24  N2  F06     1     138.670  98.437 125.753  0.00  0.00    -0.263 NA
ATOM     25  C19 F06     1     138.440  97.129 125.985  0.00  0.00    +0.111 A 
ATOM     26  C20 F06     1     138.596  96.544 127.253  0.00  0.00    +0.020 A 
ATOM     27  C21 F06     1     139.009  97.350 128.325  0.00  0.00    +0.006 A 
ENDBRANCH  21  22
ENDBRANCH  10  21
TORSDOF 6
ENDMDL
MODEL 3
REMARK VINA RESULT:    -8.711      1.592      8.850
REMARK INTER + INTRA:         -12.206
REMARK INTER:                 -11.487
REMARK INTRA:                  -0.719
REMARK UNBOUND:                -0.693
REMARK  Name = ligands_pdb/F3_CHEMBL28363.pdb
REMARK  6 active torsions:
REMARK  status: ('A' for Active; 'I' for Inactive)
REMARK    1  A    between atoms: O1_2  and  C1_3
REMARK    2  A    between atoms: C4_8  and  O2_9
REMARK    3  A    between atoms: O2_9  and  C5_10
REMARK    4  A    between atoms: C5_10  and  C6_13
REMARK    5  A    between atoms: C15_32  and  C16_34
REMARK    6  A    between atoms: C16_34  and  C17_37
REMARK                            x       y       z     vdW  Elec       q    Type
REMARK                         _______ _______ _______ _____ _____    ______ ____
ROOT
ATOM      1  C1  F06     1     142.717  97.275 134.876  0.00  0.00    +0.155 C 
ATOM      2  C2  F06     1     142.787  98.156 133.634  0.00  0.00    +0.026 A 
ATOM      3  C3  F06     1     141.631  98.804 133.160  0.00  0.00    +0.055 A 
ATOM      4  C4  F06     1     141.682  99.607 132.010  0.00  0.00    +0.122 A 
ATOM      5  C11 F06     1     142.905  99.773 131.328  0.00  0.00    +0.049 A 
ATOM      6  C12 F06     1     144.063  99.132 131.799  0.00  0.00    +0.049 A 
ATOM      7  C13 F06     1     144.004  98.320 132.942  0.00  0.00    +0.126 A 
ATOM      8  O3  F06     1     145.161  97.721 133.395  0.00  0.00    -0.491 OA
ATOM      9  C14 F06     1     145.113  96.647 134.356  0.00  0.00    +0.235 C 
ATOM     10  C15 F06     1     144.127  97.039 135.482  0.00  0.00    +0.064 C 
ENDROOT
BRANCH   1  12
ATOM     11  H1  F06     1     142.785  95.349 134.520  0.00  0.00    +0.210 HD
ATOM     12  O1  F06     1     142.093  96.035 134.531  0.00  0.00    -0.387 OA
ENDBRANCH   1  12
BRANCH   4  13
ATOM     13  O2  F06     1     140.512 100.208 131.595  0.00  0.00    -0.486 OA
BRANCH  13  14
ATOM     14  C5  F06     1     140.207 100.471 130.210  0.00  0.00    +0.284 C 
BRANCH  14  15
ATOM     15  C6  F06     1     139.682  99.209 129.539  0.00  0.00    +0.078 A 
ATOM     16  N1  F06     1     139.625  99.233 128.188  0.00  0.00    -0.256 NA
ATOM     17  C7  F06     1     139.179  98.136 127.541  0.00  0.00    +0.111 A 
ATOM     18  C8  F06     1     138.777  96.967 128.210  0.00  0.00    +0.020 A 
ATOM     19  C9  F06     1     138.842  96.936 129.612  0.00  0.00    +0.003 A 
ATOM     20  C10 F06     1     139.305  98.076 130.288  0.00  0.00    +0.027 A 
ENDBRANCH  14  15
ENDBRANCH  13  14
ENDBRANCH   4  13
BRANCH  10  21
ATOM     21  C16 F06     1     144.110  96.002 136.638  0.00  0.00    +0.046 C 
BRANCH  21  22
ATOM     22  C17 F06     1     143.349  96.491 137.862  0.00  0.00    -0.029 A 
ATOM     23  C18 F06     1     142.310  95.718 138.419  0.00  0.00    +0.114 A 
ATOM     24  N2  F06     1     141.602  96.106 139.499  0.00  0.00    -0.263 NA
ATOM     25  C19 F06     1     141.905  97.288 140.072  0.00  0.00    +0.111 A 
ATOM     26  C20 F06     1     142.924  98.127 139.591  0.00  0.00    +0.020 A 
ATOM     27  C21 F06     1     143.660  97.722 138.467  0.00  0.00    +0.006 A 
ENDBRANCH  21  22
ENDBRANCH  10  21
TORSDOF 6
ENDMDL
MODEL 4
REMARK VINA RESULT:    -8.453      1.622      2.323
REMARK INTER + INTRA:         -11.864
REMARK INTER:                 -11.234
REMARK INTRA:                  -0.630
REMARK UNBOUND:                -0.693
REMARK  Name = ligands_pdb/F3_CHEMBL28363.pdb
REMARK  6 active torsions:
REMARK  status: ('A' for Active; 'I' for Inactive)
REMARK    1  A    between atoms: O1_2  and  C1_3
REMARK    2  A    between atoms: C4_8  and  O2_9
REMARK    3  A    between atoms: O2_9  and  C5_10
REMARK    4  A    between atoms: C5_10  and  C6_13
REMARK    5  A    between atoms: C15_32  and  C16_34
REMARK    6  A    between atoms: C16_34  and  C17_37
REMARK                            x       y       z     vdW  Elec       q    Type
REMARK                         _______ _______ _______ _____ _____    ______ ____
ROOT
ATOM      1  C1  F06     1     143.131  98.821 131.772  0.00  0.00    +0.155 C 
ATOM      2  C2  F06     1     143.642  97.969 132.929  0.00  0.00    +0.026 A 
ATOM      3  C3  F06     1     143.011  98.028 134.185  0.00  0.00    +0.055 A 
ATOM      4  C4  F06     1     143.482  97.258 135.260  0.00  0.00    +0.122 A 
ATOM      5  C11 F06     1     144.594  96.411 135.077  0.00  0.00    +0.049 A 
ATOM      6  C12 F06     1     145.226  96.344 133.824  0.00  0.00    +0.049 A 
ATOM      7  C13 F06     1     144.759  97.125 132.756  0.00  0.00    +0.126 A 
ATOM      8  O3  F06     1     145.384  97.023 131.531  0.00  0.00    -0.491 OA
ATOM      9  C14 F06     1     145.162  98.007 130.501  0.00  0.00    +0.235 C 
ATOM     10  C15 F06     1     143.643  98.286 130.407  0.00  0.00    +0.064 C 
ENDROOT
BRANCH   1  12
ATOM     11  H1  F06     1     142.868 100.604 132.541  0.00  0.00    +0.210 HD
ATOM     12  O1  F06     1     143.539 100.176 131.979  0.00  0.00    -0.387 OA
ENDBRANCH   1  12
BRANCH   4  13
ATOM     13  O2  F06     1     142.821  97.368 136.466  0.00  0.00    -0.486 OA
BRANCH  13  14
ATOM     14  C5  F06     1     143.224  96.658 137.654  0.00  0.00    +0.284 C 
BRANCH  14  15
ATOM     15  C6  F06     1     143.410  97.632 138.810  0.00  0.00    +0.078 A 
ATOM     16  N1  F06     1     144.512  98.412 138.760  0.00  0.00    -0.256 NA
ATOM     17  C7  F06     1     144.720  99.302 139.753  0.00  0.00    +0.111 A 
ATOM     18  C8  F06     1     143.836  99.457 140.834  0.00  0.00    +0.020 A 
ATOM     19  C9  F06     1     142.687  98.653 140.887  0.00  0.00    +0.003 A 
ATOM     20  C10 F06     1     142.469  97.726 139.855  0.00  0.00    +0.027 A 
ENDBRANCH  14  15
ENDBRANCH  13  14
ENDBRANCH   4  13
BRANCH  10  21
ATOM     21  C16 F06     1     143.289  99.233 129.229  0.00  0.00    +0.046 C 
BRANCH  21  22
ATOM     22  C17 F06     1     141.791  99.461 129.080  0.00  0.00    -0.029 A 
ATOM     23  C18 F06     1     140.910  98.372 128.923  0.00  0.00    +0.114 A 
ATOM     24  N2  F06     1     139.577  98.518 128.783  0.00  0.00    -0.263 NA
ATOM     25  C19 F06     1     139.065  99.765 128.797  0.00  0.00    +0.111 A 
ATOM     26  C20 F06     1     139.862 100.913 128.951  0.00  0.00    +0.020 A 
ATOM     27  C21 F06     1     141.249 100.759 129.096  0.00  0.00    +0.006 A 
ENDBRANCH  21  22
ENDBRANCH  10  21
TORSDOF 6
ENDMDL
MODEL 5
REMARK VINA RESULT:    -8.329      1.777      2.796
REMARK INTER + INTRA:         -11.701
REMARK INTER:                 -11.190
REMARK INTRA:                  -0.511
REMARK UNBOUND:                -0.693
REMARK  Name = ligands_pdb/F3_CHEMBL28363.pdb
REMARK  6 active torsions:
REMARK  status: ('A' for Active; 'I' for Inactive)
REMARK    1  A    between atoms: O1_2  and  C1_3
REMARK    2  A    between atoms: C4_8  and  O2_9
REMARK    3  A    between atoms: O2_9  and  C5_10
REMARK    4  A    between atoms: C5_10  and  C6_13
REMARK    5  A    between atoms: C15_32  and  C16_34
REMARK    6  A    between atoms: C16_34  and  C17_37
REMARK                            x       y       z     vdW  Elec       q    Type
REMARK                         _______ _______ _______ _____ _____    ______ ____
ROOT
ATOM      1  C1  F06     1     141.654  96.448 130.995  0.00  0.00    +0.155 C 
ATOM      2  C2  F06     1     141.643  97.081 132.382  0.00  0.00    +0.026 A 
ATOM      3  C3  F06     1     142.555  96.649 133.363  0.00  0.00    +0.055 A 
ATOM      4  C4  F06     1     142.545  97.216 134.648  0.00  0.00    +0.122 A 
ATOM      5  C11 F06     1     141.618  98.233 134.954  0.00  0.00    +0.049 A 
ATOM      6  C12 F06     1     140.709  98.671 133.978  0.00  0.00    +0.049 A 
ATOM      7  C13 F06     1     140.714  98.092 132.700  0.00  0.00    +0.126 A 
ATOM      8  O3  F06     1     139.825  98.557 131.754  0.00  0.00    -0.491 OA
ATOM      9  C14 F06     1     139.568  97.810 130.547  0.00  0.00    +0.235 C 
ATOM     10  C15 F06     1     140.922  97.345 129.959  0.00  0.00    +0.064 C 
ENDROOT
BRANCH   1  12
ATOM     11  H1  F06     1     141.742  94.493 130.890  0.00  0.00    +0.210 HD
ATOM     12  O1  F06     1     141.049  95.154 131.071  0.00  0.00    -0.387 OA
ENDBRANCH   1  12
BRANCH   4  13
ATOM     13  O2  F06     1     143.461  96.743 135.564  0.00  0.00    -0.486 OA
BRANCH  13  14
ATOM     14  C5  F06     1     143.114  95.841 136.634  0.00  0.00    +0.284 C 
BRANCH  14  15
ATOM     15  C6  F06     1     142.981  96.605 137.944  0.00  0.00    +0.078 A 
ATOM     16  N1  F06     1     143.890  97.581 138.159  0.00  0.00    -0.256 NA
ATOM     17  C7  F06     1     143.810  98.300 139.299  0.00  0.00    +0.111 A 
ATOM     18  C8  F06     1     142.818  98.080 140.270  0.00  0.00    +0.020 A 
ATOM     19  C9  F06     1     141.868  97.072 140.047  0.00  0.00    +0.003 A 
ATOM     20  C10 F06     1     141.949  96.323 138.862  0.00  0.00    +0.027 A 
ENDBRANCH  14  15
ENDBRANCH  13  14
ENDBRANCH   4  13
BRANCH  10  21
ATOM     21  C16 F06     1     140.758  96.647 128.582  0.00  0.00    +0.046 C 
BRANCH  21  22
ATOM     22  C17 F06     1     139.783  97.371 127.663  0.00  0.00    -0.029 A 
ATOM     23  C18 F06     1     140.064  98.672 127.198  0.00  0.00    +0.114 A 
ATOM     24  N2  F06     1     139.234  99.358 126.387  0.00  0.00    -0.263 NA
ATOM     25  C19 F06     1     138.083  98.770 126.003  0.00  0.00    +0.111 A 
ATOM     26  C20 F06     1     137.716  97.477 126.413  0.00  0.00    +0.020 A 
ATOM     27  C21 F06     1     138.581  96.764 127.257  0.00  0.00    +0.006 A 
ENDBRANCH  21  22
ENDBRANCH  10  21
TORSDOF 6
ENDMDL
MODEL 6
REMARK VINA RESULT:    -8.100      1.729      9.193
REMARK INTER + INTRA:         -11.398
REMARK INTER:                 -11.127
REMARK INTRA:                  -0.272
REMARK UNBOUND:                -0.693
REMARK  Name = ligands_pdb/F3_CHEMBL28363.pdb
REMARK  6 active torsions:
REMARK  status: ('A' for Active; 'I' for Inactive)
REMARK    1  A    between atoms: O1_2  and  C1_3
REMARK    2  A    between atoms: C4_8  and  O2_9
REMARK    3  A    between atoms: O2_9  and  C5_10
REMARK    4  A    between atoms: C5_10  and  C6_13
REMARK    5  A    between atoms: C15_32  and  C16_34
REMARK    6  A    between atoms: C16_34  and  C17_37
REMARK                            x       y       z     vdW  Elec       q    Type
REMARK                         _______ _______ _______ _____ _____    ______ ____
ROOT
ATOM      1  C1  F06     1     143.706  97.420 134.760  0.00  0.00    +0.155 C 
ATOM      2  C2  F06     1     142.910  98.250 133.758  0.00  0.00    +0.026 A 
ATOM      3  C3  F06     1     143.524  98.720 132.582  0.00  0.00    +0.055 A 
ATOM      4  C4  F06     1     142.803  99.495 131.660  0.00  0.00    +0.122 A 
ATOM      5  C11 F06     1     141.450  99.799 131.911  0.00  0.00    +0.049 A 
ATOM      6  C12 F06     1     140.831  99.329 133.081  0.00  0.00    +0.049 A 
ATOM      7  C13 F06     1     141.559  98.565 134.006  0.00  0.00    +0.126 A 
ATOM      8  O3  F06     1     140.919  98.098 135.135  0.00  0.00    -0.491 OA
ATOM      9  C14 F06     1     141.671  97.586 136.254  0.00  0.00    +0.235 C 
ATOM     10  C15 F06     1     142.768  96.636 135.717  0.00  0.00    +0.064 C 
ENDROOT
BRANCH   1  12
ATOM     11  H1  F06     1     145.383  97.783 135.708  0.00  0.00    +0.210 HD
ATOM     12  O1  F06     1     144.578  98.287 135.491  0.00  0.00    -0.387 OA
ENDBRANCH   1  12
BRANCH   4  13
ATOM     13  O2  F06     1     143.467  99.929 130.531  0.00  0.00    -0.486 OA
BRANCH  13  14
ATOM     14  C5  F06     1     143.413  99.236 129.268  0.00  0.00    +0.284 C 
BRANCH  14  15
ATOM     15  C6  F06     1     142.060  99.455 128.605  0.00  0.00    +0.078 A 
ATOM     16  N1  F06     1     141.385  98.341 128.246  0.00  0.00    -0.256 NA
ATOM     17  C7  F06     1     140.174  98.477 127.666  0.00  0.00    +0.111 A 
ATOM     18  C8  F06     1     139.583  99.729 127.423  0.00  0.00    +0.020 A 
ATOM     19  C9  F06     1     140.277 100.888 127.800  0.00  0.00    +0.003 A 
ATOM     20  C10 F06     1     141.537 100.749 128.404  0.00  0.00    +0.027 A 
ENDBRANCH  14  15
ENDBRANCH  13  14
ENDBRANCH   4  13
BRANCH  10  21
ATOM     21  C16 F06     1     143.544  95.927 136.859  0.00  0.00    +0.046 C 
BRANCH  21  22
ATOM     22  C17 F06     1     143.169  96.444 138.241  0.00  0.00    -0.029 A 
ATOM     23  C18 F06     1     143.895  97.494 138.838  0.00  0.00    +0.114 A 
ATOM     24  N2  F06     1     143.607  97.986 140.060  0.00  0.00    -0.263 NA
ATOM     25  C19 F06     1     142.574  97.448 140.739  0.00  0.00    +0.111 A 
ATOM     26  C20 F06     1     141.791  96.400 140.228  0.00  0.00    +0.020 A 
ATOM     27  C21 F06     1     142.092  95.889 138.956  0.00  0.00    +0.006 A 
ENDBRANCH  21  22
ENDBRANCH  10  21
TORSDOF 6
ENDMDL
MODEL 7
REMARK VINA RESULT:    -7.883      3.064      9.039
REMARK INTER + INTRA:         -11.111
REMARK INTER:                 -10.788
REMARK INTRA:                  -0.323
REMARK UNBOUND:                -0.693
REMARK  Name = ligands_pdb/F3_CHEMBL28363.pdb
REMARK  6 active torsions:
REMARK  status: ('A' for Active; 'I' for Inactive)
REMARK    1  A    between atoms: O1_2  and  C1_3
REMARK    2  A    between atoms: C4_8  and  O2_9
REMARK    3  A    between atoms: O2_9  and  C5_10
REMARK    4  A    between atoms: C5_10  and  C6_13
REMARK    5  A    between atoms: C15_32  and  C16_34
REMARK    6  A    between atoms: C16_34  and  C17_37
REMARK                            x       y       z     vdW  Elec       q    Type
REMARK                         _______ _______ _______ _____ _____    ______ ____
ROOT
ATOM      1  C1  F06     1     143.972  97.338 134.958  0.00  0.00    +0.155 C 
ATOM      2  C2  F06     1     143.314  98.122 133.827  0.00  0.00    +0.026 A 
ATOM      3  C3  F06     1     144.070  98.524 132.711  0.00  0.00    +0.055 A 
ATOM      4  C4  F06     1     143.477  99.257 131.671  0.00  0.00    +0.122 A 
ATOM      5  C11 F06     1     142.108  99.587 131.743  0.00  0.00    +0.049 A 
ATOM      6  C12 F06     1     141.347  99.184 132.852  0.00  0.00    +0.049 A 
ATOM      7  C13 F06     1     141.947  98.463 133.895  0.00  0.00    +0.126 A 
ATOM      8  O3  F06     1     141.171  98.061 134.962  0.00  0.00    -0.491 OA
ATOM      9  C14 F06     1     141.776  97.602 136.188  0.00  0.00    +0.235 C 
ATOM     10  C15 F06     1     142.914  96.615 135.835  0.00  0.00    +0.064 C 
ENDROOT
BRANCH   1  12
ATOM     11  H1  F06     1     144.159  98.734 136.320  0.00  0.00    +0.210 HD
ATOM     12  O1  F06     1     144.764  98.234 135.743  0.00  0.00    -0.387 OA
ENDBRANCH   1  12
BRANCH   4  13
ATOM     13  O2  F06     1     144.276  99.625 130.609  0.00  0.00    -0.486 OA
BRANCH  13  14
ATOM     14  C5  F06     1     143.924  99.379 129.233  0.00  0.00    +0.284 C 
BRANCH  14  15
ATOM     15  C6  F06     1     144.567  98.087 128.748  0.00  0.00    +0.078 A 
ATOM     16  N1  F06     1     145.865  97.907 129.081  0.00  0.00    -0.256 NA
ATOM     17  C7  F06     1     146.481  96.772 128.688  0.00  0.00    +0.111 A 
ATOM     18  C8  F06     1     145.829  95.767 127.953  0.00  0.00    +0.020 A 
ATOM     19  C9  F06     1     144.480  95.947 127.611  0.00  0.00    +0.003 A 
ATOM     20  C10 F06     1     143.837  97.127 128.019  0.00  0.00    +0.027 A 
ENDBRANCH  14  15
ENDBRANCH  13  14
ENDBRANCH   4  13
BRANCH  10  21
ATOM     21  C16 F06     1     143.538  95.958 137.096  0.00  0.00    +0.046 C 
BRANCH  21  22
ATOM     22  C17 F06     1     143.124  96.648 138.389  0.00  0.00    -0.029 A 
ATOM     23  C18 F06     1     143.821  97.781 138.855  0.00  0.00    +0.114 A 
ATOM     24  N2  F06     1     143.499  98.426 139.994  0.00  0.00    -0.263 NA
ATOM     25  C19 F06     1     142.460  97.965 140.718  0.00  0.00    +0.111 A 
ATOM     26  C20 F06     1     141.703  96.845 140.335  0.00  0.00    +0.020 A 
ATOM     27  C21 F06     1     142.040  96.174 139.149  0.00  0.00    +0.006 A 
ENDBRANCH  21  22
ENDBRANCH  10  21
TORSDOF 6
ENDMDL
MODEL 8
REMARK VINA RESULT:    -7.723      2.024      9.684
REMARK INTER + INTRA:         -10.899
REMARK INTER:                 -10.385
REMARK INTRA:                  -0.514
REMARK UNBOUND:                -0.693
REMARK  Name = ligands_pdb/F3_CHEMBL28363.pdb
REMARK  6 active torsions:
REMARK  status: ('A' for Active; 'I' for Inactive)
REMARK    1  A    between atoms: O1_2  and  C1_3
REMARK    2  A    between atoms: C4_8  and  O2_9
REMARK    3  A    between atoms: O2_9  and  C5_10
REMARK    4  A    between atoms: C5_10  and  C6_13
REMARK    5  A    between atoms: C15_32  and  C16_34
REMARK    6  A    between atoms: C16_34  and  C17_37
REMARK                            x       y       z     vdW  Elec       q    Type
REMARK                         _______ _______ _______ _____ _____    ______ ____
ROOT
ATOM      1  C1  F06     1     143.453  96.602 133.592  0.00  0.00    +0.155 C 
ATOM      2  C2  F06     1     142.426  96.950 132.520  0.00  0.00    +0.026 A 
ATOM      3  C3  F06     1     142.671  96.627 131.173  0.00  0.00    +0.055 A 
ATOM      4  C4  F06     1     141.737  96.955 130.177  0.00  0.00    +0.122 A 
ATOM      5  C11 F06     1     140.538  97.606 130.532  0.00  0.00    +0.049 A 
ATOM      6  C12 F06     1     140.286  97.927 131.876  0.00  0.00    +0.049 A 
ATOM      7  C13 F06     1     141.228  97.609 132.866  0.00  0.00    +0.126 A 
ATOM      8  O3  F06     1     140.944  97.915 134.180  0.00  0.00    -0.491 OA
ATOM      9  C14 F06     1     141.978  97.902 135.185  0.00  0.00    +0.235 C 
ATOM     10  C15 F06     1     142.819  96.615 135.009  0.00  0.00    +0.064 C 
ENDROOT
BRANCH   1  12
ATOM     11  H1  F06     1     144.963  97.408 132.638  0.00  0.00    +0.210 HD
ATOM     12  O1  F06     1     144.542  97.526 133.508  0.00  0.00    -0.387 OA
ENDBRANCH   1  12
BRANCH   4  13
ATOM     13  O2  F06     1     142.043  96.616 128.875  0.00  0.00    -0.486 OA
BRANCH  13  14
ATOM     14  C5  F06     1     142.166  97.586 127.816  0.00  0.00    +0.284 C 
BRANCH  14  15
ATOM     15  C6  F06     1     140.817  97.807 127.145  0.00  0.00    +0.078 A 
ATOM     16  N1  F06     1     140.318  99.061 127.211  0.00  0.00    -0.256 NA
ATOM     17  C7  F06     1     139.131  99.316 126.621  0.00  0.00    +0.111 A 
ATOM     18  C8  F06     1     138.394  98.334 125.936  0.00  0.00    +0.020 A 
ATOM     19  C9  F06     1     138.913  97.033 125.859  0.00  0.00    +0.003 A 
ATOM     20  C10 F06     1     140.147  96.765 126.472  0.00  0.00    +0.027 A 
ENDBRANCH  14  15
ENDBRANCH  13  14
ENDBRANCH   4  13
BRANCH  10  21
ATOM     21  C16 F06     1     143.876  96.443 136.133  0.00  0.00    +0.046 C 
BRANCH  21  22
ATOM     22  C17 F06     1     143.276  96.537 137.530  0.00  0.00    -0.029 A 
ATOM     23  C18 F06     1     143.677  97.555 138.418  0.00  0.00    +0.114 A 
ATOM     24  N2  F06     1     143.182  97.681 139.665  0.00  0.00    -0.263 NA
ATOM     25  C19 F06     1     142.257  96.791 140.079  0.00  0.00    +0.111 A 
ATOM     26  C20 F06     1     141.793  95.743 139.267  0.00  0.00    +0.020 A 
ATOM     27  C21 F06     1     142.310  95.613 137.968  0.00  0.00    +0.006 A 
ENDBRANCH  21  22
ENDBRANCH  10  21
TORSDOF 6
ENDMDL
MODEL 9
REMARK VINA RESULT:    -7.580      3.472      4.218
REMARK INTER + INTRA:         -10.711
REMARK INTER:                 -10.104
REMARK INTRA:                  -0.607
REMARK UNBOUND:                -0.693
REMARK  Name = ligands_pdb/F3_CHEMBL28363.pdb
REMARK  6 active torsions:
REMARK  status: ('A' for Active; 'I' for Inactive)
REMARK    1  A    between atoms: O1_2  and  C1_3
REMARK    2  A    between atoms: C4_8  and  O2_9
REMARK    3  A    between atoms: O2_9  and  C5_10
REMARK    4  A    between atoms: C5_10  and  C6_13
REMARK    5  A    between atoms: C15_32  and  C16_34
REMARK    6  A    between atoms: C16_34  and  C17_37
REMARK                            x       y       z     vdW  Elec       q    Type
REMARK                         _______ _______ _______ _____ _____    ______ ____
ROOT
ATOM      1  C1  F06     1     142.840  96.927 131.024  0.00  0.00    +0.155 C 
ATOM      2  C2  F06     1     142.371  97.359 132.409  0.00  0.00    +0.026 A 
ATOM      3  C3  F06     1     142.665  96.567 133.534  0.00  0.00    +0.055 A 
ATOM      4  C4  F06     1     142.227  96.949 134.812  0.00  0.00    +0.122 A 
ATOM      5  C11 F06     1     141.491  98.141 134.970  0.00  0.00    +0.049 A 
ATOM      6  C12 F06     1     141.198  98.938 133.851  0.00  0.00    +0.049 A 
ATOM      7  C13 F06     1     141.627  98.545 132.574  0.00  0.00    +0.126 A 
ATOM      8  O3  F06     1     141.344  99.358 131.496  0.00  0.00    -0.491 OA
ATOM      9  C14 F06     1     141.478  98.871 130.146  0.00  0.00    +0.235 C 
ATOM     10  C15 F06     1     142.823  98.116 130.025  0.00  0.00    +0.064 C 
ENDROOT
BRANCH   1  12
ATOM     11  H1  F06     1     142.499  95.027 130.683  0.00  0.00    +0.210 HD
ATOM     12  O1  F06     1     142.006  95.859 130.564  0.00  0.00    -0.387 OA
ENDBRANCH   1  12
BRANCH   4  13
ATOM     13  O2  F06     1     142.544  96.125 135.872  0.00  0.00    -0.486 OA
BRANCH  13  14
ATOM     14  C5  F06     1     143.696  96.330 136.714  0.00  0.00    +0.284 C 
BRANCH  14  15
ATOM     15  C6  F06     1     143.275  96.959 138.036  0.00  0.00    +0.078 A 
ATOM     16  N1  F06     1     144.033  97.989 138.473  0.00  0.00    -0.256 NA
ATOM     17  C7  F06     1     143.696  98.592 139.633  0.00  0.00    +0.111 A 
ATOM     18  C8  F06     1     142.588  98.198 140.403  0.00  0.00    +0.020 A 
ATOM     19  C9  F06     1     141.795  97.133 139.949  0.00  0.00    +0.003 A 
ATOM     20  C10 F06     1     142.143  96.504 138.743  0.00  0.00    +0.027 A 
ENDBRANCH  14  15
ENDBRANCH  13  14
ENDBRANCH   4  13
BRANCH  10  21
ATOM     21  C16 F06     1     143.121  97.671 128.568  0.00  0.00    +0.046 C 
BRANCH  21  22
ATOM     22  C17 F06     1     144.518  97.090 128.400  0.00  0.00    -0.029 A 
ATOM     23  C18 F06     1     145.612  97.629 129.106  0.00  0.00    +0.114 A 
ATOM     24  N2  F06     1     146.869  97.155 128.991  0.00  0.00    -0.263 NA
ATOM     25  C19 F06     1     147.087  96.115 128.162  0.00  0.00    +0.111 A 
ATOM     26  C20 F06     1     146.061  95.508 127.417  0.00  0.00    +0.020 A 
ATOM     27  C21 F06     1     144.753  96.003 127.538  0.00  0.00    +0.006 A 
ENDBRANCH  21  22
ENDBRANCH  10  21
TORSDOF 6
ENDMDL
MODEL 10
REMARK VINA RESULT:    -7.567      2.850      9.884
REMARK INTER + INTRA:         -10.694
REMARK INTER:                  -9.921
REMARK INTRA:                  -0.774
REMARK UNBOUND:                -0.693
REMARK  Name = ligands_pdb/F3_CHEMBL28363.pdb
REMARK  6 active torsions:
REMARK  status: ('A' for Active; 'I' for Inactive)
REMARK    1  A    between atoms: O1_2  and  C1_3
REMARK    2  A    between atoms: C4_8  and  O2_9
REMARK    3  A    between atoms: O2_9  and  C5_10
REMARK    4  A    between atoms: C5_10  and  C6_13
REMARK    5  A    between atoms: C15_32  and  C16_34
REMARK    6  A    between atoms: C16_34  and  C17_37
REMARK                            x       y       z     vdW  Elec       q    Type
REMARK                         _______ _______ _______ _____ _____    ______ ____
ROOT
ATOM      1  C1  F06     1     142.853  99.082 130.733  0.00  0.00    +0.155 C 
ATOM      2  C2  F06     1     141.546  99.625 130.164  0.00  0.00    +0.026 A 
ATOM      3  C3  F06     1     141.352  99.686 128.772  0.00  0.00    +0.055 A 
ATOM      4  C4  F06     1     140.158 100.196 128.238  0.00  0.00    +0.122 A 
ATOM      5  C11 F06     1     139.140 100.643 129.105  0.00  0.00    +0.049 A 
ATOM      6  C12 F06     1     139.326 100.580 130.496  0.00  0.00    +0.049 A 
ATOM      7  C13 F06     1     140.527 100.082 131.025  0.00  0.00    +0.126 A 
ATOM      8  O3  F06     1     140.674 100.011 132.394  0.00  0.00    -0.491 OA
ATOM      9  C14 F06     1     141.971  99.809 132.991  0.00  0.00    +0.235 C 
ATOM     10  C15 F06     1     142.695  98.677 132.224  0.00  0.00    +0.064 C 
ENDROOT
BRANCH   1  12
ATOM     11  H1  F06     1     144.730  99.643 130.748  0.00  0.00    +0.210 HD
ATOM     12  O1  F06     1     143.873 100.072 130.575  0.00  0.00    -0.387 OA
ENDBRANCH   1  12
BRANCH   4  13
ATOM     13  O2  F06     1     140.035 100.233 126.864  0.00  0.00    -0.486 OA
BRANCH  13  14
ATOM     14  C5  F06     1     138.806  99.932 126.173  0.00  0.00    +0.284 C 
BRANCH  14  15
ATOM     15  C6  F06     1     138.626  98.424 126.053  0.00  0.00    +0.078 A 
ATOM     16  N1  F06     1     139.676  97.738 125.550  0.00  0.00    -0.256 NA
ATOM     17  C7  F06     1     139.576  96.397 125.434  0.00  0.00    +0.111 A 
ATOM     18  C8  F06     1     138.429  95.683 125.820  0.00  0.00    +0.020 A 
ATOM     19  C9  F06     1     137.339  96.391 126.349  0.00  0.00    +0.003 A 
ATOM     20  C10 F06     1     137.441  97.787 126.470  0.00  0.00    +0.027 A 
ENDBRANCH  14  15
ENDBRANCH  13  14
ENDBRANCH   4  13
BRANCH  10  21
ATOM     21  C16 F06     1     144.048  98.292 132.880  0.00  0.00    +0.046 C 
BRANCH  21  22
ATOM     22  C17 F06     1     143.879  97.622 134.237  0.00  0.00    -0.029 A 
ATOM     23  C18 F06     1     144.572  98.100 135.367  0.00  0.00    +0.114 A 
ATOM     24  N2  F06     1     144.461  97.542 136.589  0.00  0.00    -0.263 NA
ATOM     25  C19 F06     1     143.648  96.476 136.734  0.00  0.00    +0.111 A 
ATOM     26  C20 F06     1     142.915  95.928 135.668  0.00  0.00    +0.020 A 
ATOM     27  C21 F06     1     143.032  96.511 134.397  0.00  0.00    +0.006 A 
ENDBRANCH  21  22
ENDBRANCH  10  21
TORSDOF 6
ENDMDL
