MODEL 1
REMARK VINA RESULT:    -6.937      0.000      0.000
REMARK INTER + INTRA:          -9.154
REMARK INTER:                  -8.762
REMARK INTRA:                  -0.392
REMARK UNBOUND:                -0.392
REMARK  Name = ligands_pdb/F3_CHEMBL17547.pdb
REMARK  7 active torsions:
REMARK  status: ('A' for Active; 'I' for Inactive)
REMARK    1  A    between atoms: O1_2  and  C1_3
REMARK    2  A    between atoms: C1_3  and  C2_6
REMARK    3  A    between atoms: C2_6  and  S1_9
REMARK    4  A    between atoms: S1_9  and  C3_10
REMARK    5  A    between atoms: C4_12  and  C5_13
REMARK    6  A    between atoms: C14_30  and  C15_31
REMARK    7  A    between atoms: C14_30  and  C16_35
REMARK                            x       y       z     vdW  Elec       q    Type
REMARK                         _______ _______ _______ _____ _____    ______ ____
ROOT
ATOM      1  C3  F03     1     141.395 100.000 130.670  0.00  0.00    +0.056 A 
ATOM      2  S2  F03     1     140.960  99.577 132.314  0.00  0.00    -0.079 S 
ATOM      3  C4  F03     1     142.481  98.685 132.389  0.00  0.00    +0.042 A 
ATOM      4  C10 F03     1     143.192  98.713 131.199  0.00  0.00    -0.019 A 
ATOM      5  C11 F03     1     142.578  99.468 130.245  0.00  0.00    +0.042 A 
ATOM      6  C12 F03     1     143.157  99.626 128.952  0.00  0.00    +0.166 C 
ATOM      7  O2  F03     1     142.567 100.199 128.053  0.00  0.00    -0.292 OA
ATOM      8  C13 F03     1     144.549  99.021 128.716  0.00  0.00    +0.086 C 
ATOM      9  C14 F03     1     144.777  97.698 129.497  0.00  0.00    -0.024 C 
ATOM     10  C15 F03     1     143.838  96.584 128.957  0.00  0.00    +0.011 C 
ATOM     11  C16 F03     1     146.245  97.237 129.320  0.00  0.00    +0.011 C 
ATOM     12  C17 F03     1     144.492  97.962 131.000  0.00  0.00    +0.044 C 
ENDROOT
BRANCH   3  13
ATOM     13  C5  F03     1     142.940  97.937 133.563  0.00  0.00    +0.078 A 
ATOM     14  N1  F03     1     142.303  96.788 133.879  0.00  0.00    -0.254 NA
ATOM     15  C6  F03     1     142.738  96.070 134.934  0.00  0.00    +0.111 A 
ATOM     16  C7  F03     1     143.839  96.459 135.716  0.00  0.00    +0.020 A 
ATOM     17  C8  F03     1     144.517  97.641 135.383  0.00  0.00    +0.004 A 
ATOM     18  C9  F03     1     144.063  98.389 134.284  0.00  0.00    +0.029 A 
ENDBRANCH   3  13
BRANCH   1  19
ATOM     19  S1  F03     1     140.278 101.030 129.765  0.00  0.00    -0.115 S 
BRANCH  19  20
ATOM     20  C2  F03     1     139.362 101.947 131.077  0.00  0.00    +0.102 C 
BRANCH  20  21
ATOM     21  C1  F03     1     137.900 102.168 130.651  0.00  0.00    +0.167 C 
BRANCH  21  23
ATOM     22  H1  F03     1     136.170 102.488 131.507  0.00  0.00    +0.209 HD
ATOM     23  O1  F03     1     137.101 102.468 131.793  0.00  0.00    -0.394 OA
ENDBRANCH  21  23
ENDBRANCH  20  21
ENDBRANCH  19  20
ENDBRANCH   1  19
TORSDOF 5
ENDMDL
MODEL 2
REMARK VINA RESULT:    -6.709      1.548      1.659
REMARK INTER + INTRA:          -8.866
REMARK INTER:                  -8.101
REMARK INTRA:                  -0.765
REMARK UNBOUND:                -0.392
REMARK  Name = ligands_pdb/F3_CHEMBL17547.pdb
REMARK  7 active torsions:
REMARK  status: ('A' for Active; 'I' for Inactive)
REMARK    1  A    between atoms: O1_2  and  C1_3
REMARK    2  A    between atoms: C1_3  and  C2_6
REMARK    3  A    between atoms: C2_6  and  S1_9
REMARK    4  A    between atoms: S1_9  and  C3_10
REMARK    5  A    between atoms: C4_12  and  C5_13
REMARK    6  A    between atoms: C14_30  and  C15_31
REMARK    7  A    between atoms: C14_30  and  C16_35
REMARK                            x       y       z     vdW  Elec       q    Type
REMARK                         _______ _______ _______ _____ _____    ______ ____
ROOT
ATOM      1  C3  F03     1     141.524  99.942 130.693  0.00  0.00    +0.056 A 
ATOM      2  S2  F03     1     141.051  99.532 132.330  0.00  0.00    -0.079 S 
ATOM      3  C4  F03     1     142.562  98.628 132.442  0.00  0.00    +0.042 A 
ATOM      4  C10 F03     1     143.298  98.643 131.267  0.00  0.00    -0.019 A 
ATOM      5  C11 F03     1     142.710  99.398 130.295  0.00  0.00    +0.042 A 
ATOM      6  C12 F03     1     143.317  99.543 129.014  0.00  0.00    +0.166 C 
ATOM      7  O2  F03     1     142.751 100.116 128.100  0.00  0.00    -0.292 OA
ATOM      8  C13 F03     1     144.709  98.924 128.811  0.00  0.00    +0.086 C 
ATOM      9  C14 F03     1     144.908  97.604 129.604  0.00  0.00    -0.024 C 
ATOM     10  C15 F03     1     143.971  96.495 129.050  0.00  0.00    +0.011 C 
ATOM     11  C16 F03     1     146.376  97.129 129.461  0.00  0.00    +0.011 C 
ATOM     12  C17 F03     1     144.595  97.879 131.099  0.00  0.00    +0.044 C 
ENDROOT
BRANCH   3  13
ATOM     13  C5  F03     1     142.990  97.883 133.629  0.00  0.00    +0.078 A 
ATOM     14  N1  F03     1     142.376  96.711 133.905  0.00  0.00    -0.254 NA
ATOM     15  C6  F03     1     142.784  95.996 134.972  0.00  0.00    +0.111 A 
ATOM     16  C7  F03     1     143.835  96.412 135.809  0.00  0.00    +0.020 A 
ATOM     17  C8  F03     1     144.490  97.619 135.518  0.00  0.00    +0.004 A 
ATOM     18  C9  F03     1     144.063  98.362 134.406  0.00  0.00    +0.029 A 
ENDBRANCH   3  13
BRANCH   1  19
ATOM     19  S1  F03     1     140.434 100.976 129.759  0.00  0.00    -0.115 S 
BRANCH  19  20
ATOM     20  C2  F03     1     139.220  99.794 129.030  0.00  0.00    +0.102 C 
BRANCH  20  21
ATOM     21  C1  F03     1     139.352  99.773 127.497  0.00  0.00    +0.167 C 
BRANCH  21  23
ATOM     22  H1  F03     1     140.842 101.038 127.591  0.00  0.00    +0.209 HD
ATOM     23  O1  F03     1     140.037 100.940 127.051  0.00  0.00    -0.394 OA
ENDBRANCH  21  23
ENDBRANCH  20  21
ENDBRANCH  19  20
ENDBRANCH   1  19
TORSDOF 5
ENDMDL
MODEL 3
REMARK VINA RESULT:    -6.625      3.864      5.905
REMARK INTER + INTRA:          -8.760
REMARK INTER:                  -8.216
REMARK INTRA:                  -0.544
REMARK UNBOUND:                -0.392
REMARK  Name = ligands_pdb/F3_CHEMBL17547.pdb
REMARK  7 active torsions:
REMARK  status: ('A' for Active; 'I' for Inactive)
REMARK    1  A    between atoms: O1_2  and  C1_3
REMARK    2  A    between atoms: C1_3  and  C2_6
REMARK    3  A    between atoms: C2_6  and  S1_9
REMARK    4  A    between atoms: S1_9  and  C3_10
REMARK    5  A    between atoms: C4_12  and  C5_13
REMARK    6  A    between atoms: C14_30  and  C15_31
REMARK    7  A    between atoms: C14_30  and  C16_35
REMARK                            x       y       z     vdW  Elec       q    Type
REMARK                         _______ _______ _______ _____ _____    ______ ____
ROOT
ATOM      1  C3  F03     1     139.717  99.919 130.447  0.00  0.00    +0.056 A 
ATOM      2  S2  F03     1     139.124  99.964 128.798  0.00  0.00    -0.079 S 
ATOM      3  C4  F03     1     139.455  98.233 128.729  0.00  0.00    +0.042 A 
ATOM      4  C10 F03     1     140.018  97.735 129.895  0.00  0.00    -0.019 A 
ATOM      5  C11 F03     1     140.146  98.691 130.858  0.00  0.00    +0.042 A 
ATOM      6  C12 F03     1     140.700  98.374 132.133  0.00  0.00    +0.166 C 
ATOM      7  O2  F03     1     140.929  99.238 132.962  0.00  0.00    -0.292 OA
ATOM      8  C13 F03     1     141.027  96.901 132.422  0.00  0.00    +0.086 C 
ATOM      9  C14 F03     1     141.516  96.131 131.166  0.00  0.00    -0.024 C 
ATOM     10  C15 F03     1     142.888  96.686 130.693  0.00  0.00    +0.011 C 
ATOM     11  C16 F03     1     141.682  94.629 131.511  0.00  0.00    +0.011 C 
ATOM     12  C17 F03     1     140.454  96.293 130.047  0.00  0.00    +0.044 C 
ENDROOT
BRANCH   3  13
ATOM     13  C5  F03     1     139.217  97.395 127.550  0.00  0.00    +0.078 A 
ATOM     14  N1  F03     1     140.185  97.327 126.608  0.00  0.00    -0.254 NA
ATOM     15  C6  F03     1     139.996  96.532 125.536  0.00  0.00    +0.111 A 
ATOM     16  C7  F03     1     138.838  95.755 125.360  0.00  0.00    +0.020 A 
ATOM     17  C8  F03     1     137.837  95.806 126.343  0.00  0.00    +0.004 A 
ATOM     18  C9  F03     1     138.035  96.635 127.459  0.00  0.00    +0.029 A 
ENDBRANCH   3  13
BRANCH   1  19
ATOM     19  S1  F03     1     139.707 101.431 131.364  0.00  0.00    -0.115 S 
BRANCH  19  20
ATOM     20  C2  F03     1     138.637 102.549 130.360  0.00  0.00    +0.102 C 
BRANCH  20  21
ATOM     21  C1  F03     1     137.182 102.481 130.854  0.00  0.00    +0.167 C 
BRANCH  21  23
ATOM     22  H1  F03     1     137.709 103.239 132.580  0.00  0.00    +0.209 HD
ATOM     23  O1  F03     1     137.151 102.499 132.279  0.00  0.00    -0.394 OA
ENDBRANCH  21  23
ENDBRANCH  20  21
ENDBRANCH  19  20
ENDBRANCH   1  19
TORSDOF 5
ENDMDL
MODEL 4
REMARK VINA RESULT:    -6.433      2.241      4.644
REMARK INTER + INTRA:          -8.517
REMARK INTER:                  -7.903
REMARK INTRA:                  -0.614
REMARK UNBOUND:                -0.392
REMARK  Name = ligands_pdb/F3_CHEMBL17547.pdb
REMARK  7 active torsions:
REMARK  status: ('A' for Active; 'I' for Inactive)
REMARK    1  A    between atoms: O1_2  and  C1_3
REMARK    2  A    between atoms: C1_3  and  C2_6
REMARK    3  A    between atoms: C2_6  and  S1_9
REMARK    4  A    between atoms: S1_9  and  C3_10
REMARK    5  A    between atoms: C4_12  and  C5_13
REMARK    6  A    between atoms: C14_30  and  C15_31
REMARK    7  A    between atoms: C14_30  and  C16_35
REMARK                            x       y       z     vdW  Elec       q    Type
REMARK                         _______ _______ _______ _____ _____    ______ ____
ROOT
ATOM      1  C3  F03     1     140.998 100.346 130.254  0.00  0.00    +0.056 A 
ATOM      2  S2  F03     1     141.618  99.892 128.679  0.00  0.00    -0.079 S 
ATOM      3  C4  F03     1     142.197  98.407 129.437  0.00  0.00    +0.042 A 
ATOM      4  C10 F03     1     141.943  98.352 130.799  0.00  0.00    -0.019 A 
ATOM      5  C11 F03     1     141.254  99.442 131.243  0.00  0.00    +0.042 A 
ATOM      6  C12 F03     1     140.892  99.568 132.616  0.00  0.00    +0.166 C 
ATOM      7  O2  F03     1     140.381 100.585 133.051  0.00  0.00    -0.292 OA
ATOM      8  C13 F03     1     141.192  98.381 133.545  0.00  0.00    +0.086 C 
ATOM      9  C14 F03     1     142.499  97.631 133.167  0.00  0.00    -0.024 C 
ATOM     10  C15 F03     1     143.732  98.549 133.394  0.00  0.00    +0.011 C 
ATOM     11  C16 F03     1     142.649  96.371 134.056  0.00  0.00    +0.011 C 
ATOM     12  C17 F03     1     142.407  97.209 131.677  0.00  0.00    +0.044 C 
ENDROOT
BRANCH   3  13
ATOM     13  C5  F03     1     142.924  97.350 128.729  0.00  0.00    +0.078 A 
ATOM     14  N1  F03     1     142.217  96.313 128.227  0.00  0.00    -0.254 NA
ATOM     15  C6  F03     1     142.867  95.352 127.540  0.00  0.00    +0.111 A 
ATOM     16  C7  F03     1     144.253  95.388 127.310  0.00  0.00    +0.020 A 
ATOM     17  C8  F03     1     144.991  96.472 127.811  0.00  0.00    +0.004 A 
ATOM     18  C9  F03     1     144.313  97.472 128.526  0.00  0.00    +0.029 A 
ENDBRANCH   3  13
BRANCH   1  19
ATOM     19  S1  F03     1     140.144 101.889 130.386  0.00  0.00    -0.115 S 
BRANCH  19  20
ATOM     20  C2  F03     1     138.367 101.426 130.216  0.00  0.00    +0.102 C 
BRANCH  20  21
ATOM     21  C1  F03     1     137.467 102.568 130.720  0.00  0.00    +0.167 C 
BRANCH  21  23
ATOM     22  H1  F03     1     137.485 102.985 132.632  0.00  0.00    +0.209 HD
ATOM     23  O1  F03     1     137.066 102.313 132.064  0.00  0.00    -0.394 OA
ENDBRANCH  21  23
ENDBRANCH  20  21
ENDBRANCH  19  20
ENDBRANCH   1  19
TORSDOF 5
ENDMDL
MODEL 5
REMARK VINA RESULT:    -6.424      1.508      1.703
REMARK INTER + INTRA:          -8.506
REMARK INTER:                  -8.350
REMARK INTRA:                  -0.156
REMARK UNBOUND:                -0.392
REMARK  Name = ligands_pdb/F3_CHEMBL17547.pdb
REMARK  7 active torsions:
REMARK  status: ('A' for Active; 'I' for Inactive)
REMARK    1  A    between atoms: O1_2  and  C1_3
REMARK    2  A    between atoms: C1_3  and  C2_6
REMARK    3  A    between atoms: C2_6  and  S1_9
REMARK    4  A    between atoms: S1_9  and  C3_10
REMARK    5  A    between atoms: C4_12  and  C5_13
REMARK    6  A    between atoms: C14_30  and  C15_31
REMARK    7  A    between atoms: C14_30  and  C16_35
REMARK                            x       y       z     vdW  Elec       q    Type
REMARK                         _______ _______ _______ _____ _____    ______ ____
ROOT
ATOM      1  C3  F03     1     141.325  99.442 131.234  0.00  0.00    +0.056 A 
ATOM      2  S2  F03     1     141.100  99.724 132.949  0.00  0.00    -0.079 S 
ATOM      3  C4  F03     1     142.267  98.428 133.222  0.00  0.00    +0.042 A 
ATOM      4  C10 F03     1     142.715  97.839 132.049  0.00  0.00    -0.019 A 
ATOM      5  C11 F03     1     142.189  98.428 130.938  0.00  0.00    +0.042 A 
ATOM      6  C12 F03     1     142.534  97.968 129.633  0.00  0.00    +0.166 C 
ATOM      7  O2  F03     1     141.986  98.405 128.636  0.00  0.00    -0.292 OA
ATOM      8  C13 F03     1     143.608  96.876 129.524  0.00  0.00    +0.086 C 
ATOM      9  C14 F03     1     143.568  95.865 130.702  0.00  0.00    -0.024 C 
ATOM     10  C15 F03     1     142.253  95.040 130.661  0.00  0.00    +0.011 C 
ATOM     11  C16 F03     1     144.768  94.891 130.592  0.00  0.00    +0.011 C 
ATOM     12  C17 F03     1     143.665  96.660 132.032  0.00  0.00    +0.044 C 
ENDROOT
BRANCH   3  13
ATOM     13  C5  F03     1     142.692  97.968 134.546  0.00  0.00    +0.078 A 
ATOM     14  N1  F03     1     141.740  97.576 135.423  0.00  0.00    -0.254 NA
ATOM     15  C6  F03     1     142.118  97.114 136.632  0.00  0.00    +0.111 A 
ATOM     16  C7  F03     1     143.465  97.009 137.018  0.00  0.00    +0.020 A 
ATOM     17  C8  F03     1     144.459  97.396 136.107  0.00  0.00    +0.004 A 
ATOM     18  C9  F03     1     144.065  97.876 134.848  0.00  0.00    +0.029 A 
ENDBRANCH   3  13
BRANCH   1  19
ATOM     19  S1  F03     1     140.420 100.464 130.110  0.00  0.00    -0.115 S 
BRANCH  19  20
ATOM     20  C2  F03     1     139.555 101.668 131.206  0.00  0.00    +0.102 C 
BRANCH  20  21
ATOM     21  C1  F03     1     138.280 102.192 130.521  0.00  0.00    +0.167 C 
BRANCH  21  23
ATOM     22  H1  F03     1     137.505 103.943 130.120  0.00  0.00    +0.209 HD
ATOM     23  O1  F03     1     138.400 103.591 130.275  0.00  0.00    -0.394 OA
ENDBRANCH  21  23
ENDBRANCH  20  21
ENDBRANCH  19  20
ENDBRANCH   1  19
TORSDOF 5
ENDMDL
MODEL 6
REMARK VINA RESULT:    -6.330      2.270      4.415
REMARK INTER + INTRA:          -8.387
REMARK INTER:                  -7.544
REMARK INTRA:                  -0.844
REMARK UNBOUND:                -0.392
REMARK  Name = ligands_pdb/F3_CHEMBL17547.pdb
REMARK  7 active torsions:
REMARK  status: ('A' for Active; 'I' for Inactive)
REMARK    1  A    between atoms: O1_2  and  C1_3
REMARK    2  A    between atoms: C1_3  and  C2_6
REMARK    3  A    between atoms: C2_6  and  S1_9
REMARK    4  A    between atoms: S1_9  and  C3_10
REMARK    5  A    between atoms: C4_12  and  C5_13
REMARK    6  A    between atoms: C14_30  and  C15_31
REMARK    7  A    between atoms: C14_30  and  C16_35
REMARK                            x       y       z     vdW  Elec       q    Type
REMARK                         _______ _______ _______ _____ _____    ______ ____
ROOT
ATOM      1  C3  F03     1     141.662  99.205 130.631  0.00  0.00    +0.056 A 
ATOM      2  S2  F03     1     142.336  98.226 129.342  0.00  0.00    -0.079 S 
ATOM      3  C4  F03     1     142.707  97.021 130.576  0.00  0.00    +0.042 A 
ATOM      4  C10 F03     1     142.357  97.421 131.857  0.00  0.00    -0.019 A 
ATOM      5  C11 F03     1     141.756  98.646 131.871  0.00  0.00    +0.042 A 
ATOM      6  C12 F03     1     141.317  99.230 133.095  0.00  0.00    +0.166 C 
ATOM      7  O2  F03     1     140.886 100.369 133.141  0.00  0.00    -0.292 OA
ATOM      8  C13 F03     1     141.430  98.381 134.371  0.00  0.00    +0.086 C 
ATOM      9  C14 F03     1     142.674  97.452 134.374  0.00  0.00    -0.024 C 
ATOM     10  C15 F03     1     143.978  98.296 134.422  0.00  0.00    +0.011 C 
ATOM     11  C16 F03     1     142.633  96.533 135.620  0.00  0.00    +0.011 C 
ATOM     12  C17 F03     1     142.641  96.585 133.087  0.00  0.00    +0.044 C 
ENDROOT
BRANCH   3  13
ATOM     13  C5  F03     1     143.367  95.741 130.305  0.00  0.00    +0.078 A 
ATOM     14  N1  F03     1     142.601  94.697 129.916  0.00  0.00    -0.254 NA
ATOM     15  C6  F03     1     143.199  93.523 129.626  0.00  0.00    +0.111 A 
ATOM     16  C7  F03     1     144.590  93.340 129.699  0.00  0.00    +0.020 A 
ATOM     17  C8  F03     1     145.393  94.425 130.084  0.00  0.00    +0.004 A 
ATOM     18  C9  F03     1     144.770  95.646 130.386  0.00  0.00    +0.029 A 
ENDBRANCH   3  13
BRANCH   1  19
ATOM     19  S1  F03     1     140.965 100.770 130.193  0.00  0.00    -0.115 S 
BRANCH  19  20
ATOM     20  C2  F03     1     139.164 100.417 130.012  0.00  0.00    +0.102 C 
BRANCH  20  21
ATOM     21  C1  F03     1     138.334 101.634 130.456  0.00  0.00    +0.167 C 
BRANCH  21  23
ATOM     22  H1  F03     1     139.193 102.918 131.657  0.00  0.00    +0.209 HD
ATOM     23  O1  F03     1     138.747 102.057 131.753  0.00  0.00    -0.394 OA
ENDBRANCH  21  23
ENDBRANCH  20  21
ENDBRANCH  19  20
ENDBRANCH   1  19
TORSDOF 5
ENDMDL
MODEL 7
REMARK VINA RESULT:    -6.256      3.984      6.168
REMARK INTER + INTRA:          -8.293
REMARK INTER:                  -7.426
REMARK INTRA:                  -0.867
REMARK UNBOUND:                -0.392
REMARK  Name = ligands_pdb/F3_CHEMBL17547.pdb
REMARK  7 active torsions:
REMARK  status: ('A' for Active; 'I' for Inactive)
REMARK    1  A    between atoms: O1_2  and  C1_3
REMARK    2  A    between atoms: C1_3  and  C2_6
REMARK    3  A    between atoms: C2_6  and  S1_9
REMARK    4  A    between atoms: S1_9  and  C3_10
REMARK    5  A    between atoms: C4_12  and  C5_13
REMARK    6  A    between atoms: C14_30  and  C15_31
REMARK    7  A    between atoms: C14_30  and  C16_35
REMARK                            x       y       z     vdW  Elec       q    Type
REMARK                         _______ _______ _______ _____ _____    ______ ____
ROOT
ATOM      1  C3  F03     1     145.661  96.187 133.057  0.00  0.00    +0.056 A 
ATOM      2  S2  F03     1     146.048  95.872 134.737  0.00  0.00    -0.079 S 
ATOM      3  C4  F03     1     144.453  96.518 135.130  0.00  0.00    +0.042 A 
ATOM      4  C10 F03     1     143.754  96.964 134.019  0.00  0.00    -0.019 A 
ATOM      5  C11 F03     1     144.439  96.759 132.858  0.00  0.00    +0.042 A 
ATOM      6  C12 F03     1     143.882  97.146 131.603  0.00  0.00    +0.166 C 
ATOM      7  O2  F03     1     144.526  97.077 130.571  0.00  0.00    -0.292 OA
ATOM      8  C13 F03     1     142.443  97.683 131.597  0.00  0.00    +0.086 C 
ATOM      9  C14 F03     1     142.095  98.501 132.869  0.00  0.00    -0.024 C 
ATOM     10  C15 F03     1     142.934  99.808 132.917  0.00  0.00    +0.011 C 
ATOM     11  C16 F03     1     140.592  98.878 132.849  0.00  0.00    +0.011 C 
ATOM     12  C17 F03     1     142.394  97.623 134.113  0.00  0.00    +0.044 C 
ENDROOT
BRANCH   3  13
ATOM     13  C5  F03     1     143.923  96.630 136.492  0.00  0.00    +0.078 A 
ATOM     14  N1  F03     1     144.274  97.709 137.227  0.00  0.00    -0.254 NA
ATOM     15  C6  F03     1     143.764  97.846 138.468  0.00  0.00    +0.111 A 
ATOM     16  C7  F03     1     142.869  96.918 139.028  0.00  0.00    +0.020 A 
ATOM     17  C8  F03     1     142.485  95.806 138.263  0.00  0.00    +0.004 A 
ATOM     18  C9  F03     1     143.017  95.665 136.971  0.00  0.00    +0.029 A 
ENDBRANCH   3  13
BRANCH   1  19
ATOM     19  S1  F03     1     146.870  95.754 131.842  0.00  0.00    -0.115 S 
BRANCH  19  20
ATOM     20  C2  F03     1     146.352  94.076 131.281  0.00  0.00    +0.102 C 
BRANCH  20  21
ATOM     21  C1  F03     1     146.154  94.060 129.755  0.00  0.00    +0.167 C 
BRANCH  21  23
ATOM     22  H1  F03     1     145.546  95.734 128.944  0.00  0.00    +0.209 HD
ATOM     23  O1  F03     1     146.401  95.358 129.220  0.00  0.00    -0.394 OA
ENDBRANCH  21  23
ENDBRANCH  20  21
ENDBRANCH  19  20
ENDBRANCH   1  19
TORSDOF 5
ENDMDL
MODEL 8
REMARK VINA RESULT:    -6.253      4.075      6.342
REMARK INTER + INTRA:          -8.290
REMARK INTER:                  -8.259
REMARK INTRA:                  -0.031
REMARK UNBOUND:                -0.392
REMARK  Name = ligands_pdb/F3_CHEMBL17547.pdb
REMARK  7 active torsions:
REMARK  status: ('A' for Active; 'I' for Inactive)
REMARK    1  A    between atoms: O1_2  and  C1_3
REMARK    2  A    between atoms: C1_3  and  C2_6
REMARK    3  A    between atoms: C2_6  and  S1_9
REMARK    4  A    between atoms: S1_9  and  C3_10
REMARK    5  A    between atoms: C4_12  and  C5_13
REMARK    6  A    between atoms: C14_30  and  C15_31
REMARK    7  A    between atoms: C14_30  and  C16_35
REMARK                            x       y       z     vdW  Elec       q    Type
REMARK                         _______ _______ _______ _____ _____    ______ ____
ROOT
ATOM      1  C3  F03     1     142.865  97.040 135.773  0.00  0.00    +0.056 A 
ATOM      2  S2  F03     1     144.370  96.143 135.709  0.00  0.00    -0.079 S 
ATOM      3  C4  F03     1     144.418  96.525 133.986  0.00  0.00    +0.042 A 
ATOM      4  C10 F03     1     143.314  97.244 133.554  0.00  0.00    -0.019 A 
ATOM      5  C11 F03     1     142.455  97.540 134.572  0.00  0.00    +0.042 A 
ATOM      6  C12 F03     1     141.262  98.281 134.329  0.00  0.00    +0.166 C 
ATOM      7  O2  F03     1     140.429  98.453 135.202  0.00  0.00    -0.292 OA
ATOM      8  C13 F03     1     141.043  98.837 132.914  0.00  0.00    +0.086 C 
ATOM      9  C14 F03     1     141.601  97.906 131.803  0.00  0.00    -0.024 C 
ATOM     10  C15 F03     1     140.800  96.575 131.762  0.00  0.00    +0.011 C 
ATOM     11  C16 F03     1     141.471  98.605 130.426  0.00  0.00    +0.011 C 
ATOM     12  C17 F03     1     143.097  97.626 132.105  0.00  0.00    +0.044 C 
ENDROOT
BRANCH   3  13
ATOM     13  C5  F03     1     145.479  96.089 133.075  0.00  0.00    +0.078 A 
ATOM     14  N1  F03     1     146.761  96.186 133.494  0.00  0.00    -0.254 NA
ATOM     15  C6  F03     1     147.747  95.755 132.682  0.00  0.00    +0.111 A 
ATOM     16  C7  F03     1     147.498  95.193 131.417  0.00  0.00    +0.020 A 
ATOM     17  C8  F03     1     146.169  95.072 130.984  0.00  0.00    +0.004 A 
ATOM     18  C9  F03     1     145.144  95.522 131.831  0.00  0.00    +0.029 A 
ENDBRANCH   3  13
BRANCH   1  19
ATOM     19  S1  F03     1     142.061  97.181 137.341  0.00  0.00    -0.115 S 
BRANCH  19  20
ATOM     20  C2  F03     1     143.326  96.582 138.542  0.00  0.00    +0.102 C 
BRANCH  20  21
ATOM     21  C1  F03     1     143.461  97.571 139.713  0.00  0.00    +0.167 C 
BRANCH  21  23
ATOM     22  H1  F03     1     141.786  97.718 140.714  0.00  0.00    +0.209 HD
ATOM     23  O1  F03     1     142.597  97.183 140.779  0.00  0.00    -0.394 OA
ENDBRANCH  21  23
ENDBRANCH  20  21
ENDBRANCH  19  20
ENDBRANCH   1  19
TORSDOF 5
ENDMDL
MODEL 9
REMARK VINA RESULT:    -6.124      2.954      5.003
REMARK INTER + INTRA:          -8.128
REMARK INTER:                  -7.293
REMARK INTRA:                  -0.835
REMARK UNBOUND:                -0.392
REMARK  Name = ligands_pdb/F3_CHEMBL17547.pdb
REMARK  7 active torsions:
REMARK  status: ('A' for Active; 'I' for Inactive)
REMARK    1  A    between atoms: O1_2  and  C1_3
REMARK    2  A    between atoms: C1_3  and  C2_6
REMARK    3  A    between atoms: C2_6  and  S1_9
REMARK    4  A    between atoms: S1_9  and  C3_10
REMARK    5  A    between atoms: C4_12  and  C5_13
REMARK    6  A    between atoms: C14_30  and  C15_31
REMARK    7  A    between atoms: C14_30  and  C16_35
REMARK                            x       y       z     vdW  Elec       q    Type
REMARK                         _______ _______ _______ _____ _____    ______ ____
ROOT
ATOM      1  C3  F03     1     143.348  98.619 131.296  0.00  0.00    +0.056 A 
ATOM      2  S2  F03     1     144.600  97.962 130.260  0.00  0.00    -0.079 S 
ATOM      3  C4  F03     1     144.964  96.836 131.569  0.00  0.00    +0.042 A 
ATOM      4  C10 F03     1     144.181  97.035 132.697  0.00  0.00    -0.019 A 
ATOM      5  C11 F03     1     143.266  98.032 132.524  0.00  0.00    +0.042 A 
ATOM      6  C12 F03     1     142.364  98.384 133.570  0.00  0.00    +0.166 C 
ATOM      7  O2  F03     1     141.621  99.346 133.475  0.00  0.00    -0.292 OA
ATOM      8  C13 F03     1     142.375  97.523 134.842  0.00  0.00    +0.086 C 
ATOM      9  C14 F03     1     143.789  96.993 135.203  0.00  0.00    -0.024 C 
ATOM     10  C15 F03     1     144.724  98.170 135.594  0.00  0.00    +0.011 C 
ATOM     11  C16 F03     1     143.687  96.021 136.406  0.00  0.00    +0.011 C 
ATOM     12  C17 F03     1     144.358  96.238 133.972  0.00  0.00    +0.044 C 
ENDROOT
BRANCH   3  13
ATOM     13  C5  F03     1     146.018  95.820 131.513  0.00  0.00    +0.078 A 
ATOM     14  N1  F03     1     147.180  96.067 132.158  0.00  0.00    -0.254 NA
ATOM     15  C6  F03     1     148.145  95.126 132.147  0.00  0.00    +0.111 A 
ATOM     16  C7  F03     1     147.991  93.887 131.501  0.00  0.00    +0.020 A 
ATOM     17  C8  F03     1     146.781  93.615 130.845  0.00  0.00    +0.004 A 
ATOM     18  C9  F03     1     145.776  94.597 130.857  0.00  0.00    +0.029 A 
ENDBRANCH   3  13
BRANCH   1  19
ATOM     19  S1  F03     1     142.366  99.943 130.656  0.00  0.00    -0.115 S 
BRANCH  19  20
ATOM     20  C2  F03     1     141.127  99.096 129.584  0.00  0.00    +0.102 C 
BRANCH  20  21
ATOM     21  C1  F03     1     139.717  99.237 130.183  0.00  0.00    +0.167 C 
BRANCH  21  23
ATOM     22  H1  F03     1     140.479  98.639 131.883  0.00  0.00    +0.209 HD
ATOM     23  O1  F03     1     139.636  98.516 131.410  0.00  0.00    -0.394 OA
ENDBRANCH  21  23
ENDBRANCH  20  21
ENDBRANCH  19  20
ENDBRANCH   1  19
TORSDOF 5
ENDMDL
MODEL 10
REMARK VINA RESULT:    -6.102      3.058      5.551
REMARK INTER + INTRA:          -8.099
REMARK INTER:                  -7.436
REMARK INTRA:                  -0.663
REMARK UNBOUND:                -0.392
REMARK  Name = ligands_pdb/F3_CHEMBL17547.pdb
REMARK  7 active torsions:
REMARK  status: ('A' for Active; 'I' for Inactive)
REMARK    1  A    between atoms: O1_2  and  C1_3
REMARK    2  A    between atoms: C1_3  and  C2_6
REMARK    3  A    between atoms: C2_6  and  S1_9
REMARK    4  A    between atoms: S1_9  and  C3_10
REMARK    5  A    between atoms: C4_12  and  C5_13
REMARK    6  A    between atoms: C14_30  and  C15_31
REMARK    7  A    between atoms: C14_30  and  C16_35
REMARK                            x       y       z     vdW  Elec       q    Type
REMARK                         _______ _______ _______ _____ _____    ______ ____
ROOT
ATOM      1  C3  F03     1     143.680  97.830 133.572  0.00  0.00    +0.056 A 
ATOM      2  S2  F03     1     142.400  99.025 133.481  0.00  0.00    -0.079 S 
ATOM      3  C4  F03     1     142.249  98.599 131.775  0.00  0.00    +0.042 A 
ATOM      4  C10 F03     1     143.167  97.645 131.365  0.00  0.00    -0.019 A 
ATOM      5  C11 F03     1     143.957  97.210 132.389  0.00  0.00    +0.042 A 
ATOM      6  C12 F03     1     144.961  96.223 132.168  0.00  0.00    +0.166 C 
ATOM      7  O2  F03     1     145.750  95.909 133.043  0.00  0.00    -0.292 OA
ATOM      8  C13 F03     1     145.037  95.582 130.775  0.00  0.00    +0.086 C 
ATOM      9  C14 F03     1     144.676  96.569 129.632  0.00  0.00    -0.024 C 
ATOM     10  C15 F03     1     145.741  97.695 129.534  0.00  0.00    +0.011 C 
ATOM     11  C16 F03     1     144.635  95.808 128.283  0.00  0.00    +0.011 C 
ATOM     12  C17 F03     1     143.278  97.173 129.931  0.00  0.00    +0.044 C 
ENDROOT
BRANCH   3  13
ATOM     13  C5  F03     1     141.292  99.218 130.854  0.00  0.00    +0.078 A 
ATOM     14  N1  F03     1     140.068  98.656 130.731  0.00  0.00    -0.254 NA
ATOM     15  C6  F03     1     139.164  99.236 129.916  0.00  0.00    +0.111 A 
ATOM     16  C7  F03     1     139.435 100.412 129.194  0.00  0.00    +0.020 A 
ATOM     17  C8  F03     1     140.696 101.011 129.332  0.00  0.00    +0.004 A 
ATOM     18  C9  F03     1     141.637 100.406 130.181  0.00  0.00    +0.029 A 
ENDBRANCH   3  13
BRANCH   1  19
ATOM     19  S1  F03     1     144.457  97.578 135.140  0.00  0.00    -0.115 S 
BRANCH  19  20
ATOM     20  C2  F03     1     143.441  96.256 135.929  0.00  0.00    +0.102 C 
BRANCH  20  21
ATOM     21  C1  F03     1     142.568  96.849 137.047  0.00  0.00    +0.167 C 
BRANCH  21  23
ATOM     22  H1  F03     1     140.994  98.003 137.197  0.00  0.00    +0.209 HD
ATOM     23  O1  F03     1     141.438  97.510 136.483  0.00  0.00    -0.394 OA
ENDBRANCH  21  23
ENDBRANCH  20  21
ENDBRANCH  19  20
ENDBRANCH   1  19
TORSDOF 5
ENDMDL
