MODEL 1
REMARK VINA RESULT:    -9.834      0.000      0.000
REMARK INTER + INTRA:         -13.758
REMARK INTER:                 -12.709
REMARK INTRA:                  -1.049
REMARK UNBOUND:                -1.049
REMARK  Name = ligands_pdb/F3_CHEMBL418010.pdb
REMARK  7 active torsions:
REMARK  status: ('A' for Active; 'I' for Inactive)
REMARK    1  A    between atoms: N2_5  and  C3_7
REMARK    2  A    between atoms: C5_10  and  N3_11
REMARK    3  A    between atoms: C6_13  and  C7_15
REMARK    4  A    between atoms: C12_24  and  O2_25
REMARK    5  A    between atoms: O2_25  and  C13_26
REMARK    6  A    between atoms: C16_34  and  C17_35
REMARK    7  A    between atoms: C18_40  and  C19_41
REMARK                            x       y       z     vdW  Elec       q    Type
REMARK                         _______ _______ _______ _____ _____    ______ ____
ROOT
ATOM      1  C3  F10     1     144.588  97.236 133.990  0.00  0.00    +0.038 A 
ATOM      2  C4  F10     1     143.587  97.770 133.151  0.00  0.00    +0.047 A 
ATOM      3  C5  F10     1     143.522  97.430 131.791  0.00  0.00    +0.035 A 
ATOM      4  C14 F10     1     144.463  96.534 131.257  0.00  0.00    +0.024 A 
ATOM      5  C15 F10     1     145.475  96.009 132.075  0.00  0.00    +0.007 A 
ATOM      6  C16 F10     1     145.551  96.361 133.435  0.00  0.00    -0.029 A 
ATOM      7  C17 F10     1     146.666  95.772 134.294  0.00  0.00    +0.045 C 
ENDROOT
BRANCH   1  11
ATOM      8  C1  F10     1     142.552  95.766 137.558  0.00  0.00    +0.116 A 
ATOM      9  N1  F10     1     143.177  96.117 136.419  0.00  0.00    -0.223 NA
ATOM     10  C2  F10     1     143.973  97.205 136.472  0.00  0.00    +0.220 A 
ATOM     11  N2  F10     1     144.682  97.590 135.339  0.00  0.00    -0.283 N 
ATOM     12  H2  F10     1     145.456  98.207 135.547  0.00  0.00    +0.155 HD
ATOM     13  N4  F10     1     144.213  97.947 137.572  0.00  0.00    -0.214 NA
ATOM     14  C18 F10     1     143.596  97.613 138.728  0.00  0.00    +0.077 A 
ATOM     15  C24 F10     1     142.729  96.490 138.747  0.00  0.00    +0.048 A 
BRANCH  14  16
ATOM     16  C19 F10     1     143.875  98.468 139.935  0.00  0.00    +0.019 A 
ATOM     17  C20 F10     1     143.117  98.358 141.131  0.00  0.00    +0.120 A 
ATOM     18  N5  F10     1     143.331  99.103 142.236  0.00  0.00    -0.263 NA
ATOM     19  C21 F10     1     144.324 100.012 142.213  0.00  0.00    +0.111 A 
ATOM     20  C22 F10     1     145.141 100.211 141.090  0.00  0.00    +0.020 A 
ATOM     21  C23 F10     1     144.917  99.434 139.943  0.00  0.00    +0.013 A 
ENDBRANCH  14  16
ENDBRANCH   1  11
BRANCH   3  22
ATOM     22  N3  F10     1     142.487  97.980 130.991  0.00  0.00    -0.281 N 
ATOM     23  H4  F10     1     141.748  97.339 130.737  0.00  0.00    +0.155 HD
ATOM     24  C6  F10     1     142.340  99.301 130.588  0.00  0.00    +0.252 C 
ATOM     25  O1  F10     1     143.140 100.163 130.912  0.00  0.00    -0.270 OA
BRANCH  24  26
ATOM     26  C7  F10     1     141.097  99.601 129.782  0.00  0.00    +0.079 A 
ATOM     27  C8  F10     1     139.991 100.219 130.409  0.00  0.00    +0.017 A 
ATOM     28  C9  F10     1     138.829 100.525 129.684  0.00  0.00    +0.001 A 
ATOM     29  C10 F10     1     138.753 100.213 128.321  0.00  0.00    +0.004 A 
ATOM     30  C11 F10     1     139.839  99.596 127.683  0.00  0.00    +0.046 A 
ATOM     31  C12 F10     1     141.014  99.288 128.402  0.00  0.00    +0.132 A 
BRANCH  31  32
ATOM     32  O2  F10     1     142.071  98.645 127.785  0.00  0.00    -0.494 OA
ATOM     33  C13 F10     1     142.058  97.260 127.402  0.00  0.00    +0.277 C 
ENDBRANCH  31  32
ENDBRANCH  24  26
ENDBRANCH   3  22
TORSDOF 5
ENDMDL
MODEL 2
REMARK VINA RESULT:    -9.650      1.230      1.833
REMARK INTER + INTRA:         -13.520
REMARK INTER:                 -12.324
REMARK INTRA:                  -1.197
REMARK UNBOUND:                -1.049
REMARK  Name = ligands_pdb/F3_CHEMBL418010.pdb
REMARK  7 active torsions:
REMARK  status: ('A' for Active; 'I' for Inactive)
REMARK    1  A    between atoms: N2_5  and  C3_7
REMARK    2  A    between atoms: C5_10  and  N3_11
REMARK    3  A    between atoms: C6_13  and  C7_15
REMARK    4  A    between atoms: C12_24  and  O2_25
REMARK    5  A    between atoms: O2_25  and  C13_26
REMARK    6  A    between atoms: C16_34  and  C17_35
REMARK    7  A    between atoms: C18_40  and  C19_41
REMARK                            x       y       z     vdW  Elec       q    Type
REMARK                         _______ _______ _______ _____ _____    ______ ____
ROOT
ATOM      1  C3  F10     1     144.578  97.160 133.957  0.00  0.00    +0.038 A 
ATOM      2  C4  F10     1     143.575  97.666 133.102  0.00  0.00    +0.047 A 
ATOM      3  C5  F10     1     143.525  97.301 131.748  0.00  0.00    +0.035 A 
ATOM      4  C14 F10     1     144.482  96.409 131.236  0.00  0.00    +0.024 A 
ATOM      5  C15 F10     1     145.495  95.913 132.070  0.00  0.00    +0.007 A 
ATOM      6  C16 F10     1     145.556  96.288 133.424  0.00  0.00    -0.029 A 
ATOM      7  C17 F10     1     146.673  95.730 134.300  0.00  0.00    +0.045 C 
ENDROOT
BRANCH   1  11
ATOM      8  C1  F10     1     142.525  95.733 137.533  0.00  0.00    +0.116 A 
ATOM      9  N1  F10     1     143.157  96.070 136.393  0.00  0.00    -0.223 NA
ATOM     10  C2  F10     1     143.942  97.167 136.434  0.00  0.00    +0.220 A 
ATOM     11  N2  F10     1     144.657  97.538 135.300  0.00  0.00    -0.283 N 
ATOM     12  H2  F10     1     145.423  98.165 135.503  0.00  0.00    +0.155 HD
ATOM     13  N4  F10     1     144.166  97.929 137.523  0.00  0.00    -0.214 NA
ATOM     14  C18 F10     1     143.543  97.610 138.679  0.00  0.00    +0.077 A 
ATOM     15  C24 F10     1     142.686  96.480 138.711  0.00  0.00    +0.048 A 
BRANCH  14  16
ATOM     16  C19 F10     1     143.804  98.488 139.873  0.00  0.00    +0.019 A 
ATOM     17  C20 F10     1     143.049  98.380 141.071  0.00  0.00    +0.120 A 
ATOM     18  N5  F10     1     143.247  99.145 142.165  0.00  0.00    -0.263 NA
ATOM     19  C21 F10     1     144.220 100.075 142.128  0.00  0.00    +0.111 A 
ATOM     20  C22 F10     1     145.033 100.275 141.002  0.00  0.00    +0.020 A 
ATOM     21  C23 F10     1     144.825  99.477 139.867  0.00  0.00    +0.013 A 
ENDBRANCH  14  16
ENDBRANCH   1  11
BRANCH   3  22
ATOM     22  N3  F10     1     142.488  97.823 130.931  0.00  0.00    -0.281 N 
ATOM     23  H4  F10     1     142.712  98.679 130.440  0.00  0.00    +0.155 HD
ATOM     24  C6  F10     1     141.245  97.260 130.676  0.00  0.00    +0.252 C 
ATOM     25  O1  F10     1     140.915  96.190 131.162  0.00  0.00    -0.270 OA
BRANCH  24  26
ATOM     26  C7  F10     1     140.367  98.027 129.715  0.00  0.00    +0.079 A 
ATOM     27  C8  F10     1     139.681  97.334 128.692  0.00  0.00    +0.017 A 
ATOM     28  C9  F10     1     138.845  98.015 127.793  0.00  0.00    +0.001 A 
ATOM     29  C10 F10     1     138.686  99.402 127.901  0.00  0.00    +0.004 A 
ATOM     30  C11 F10     1     139.362 100.107 128.908  0.00  0.00    +0.046 A 
ATOM     31  C12 F10     1     140.202  99.431 129.819  0.00  0.00    +0.132 A 
BRANCH  31  32
ATOM     32  O2  F10     1     140.899 100.128 130.788  0.00  0.00    -0.494 OA
ATOM     33  C13 F10     1     140.330 100.559 132.036  0.00  0.00    +0.277 C 
ENDBRANCH  31  32
ENDBRANCH  24  26
ENDBRANCH   3  22
TORSDOF 5
ENDMDL
MODEL 3
REMARK VINA RESULT:    -9.497      2.649     10.021
REMARK INTER + INTRA:         -13.323
REMARK INTER:                 -12.958
REMARK INTRA:                  -0.364
REMARK UNBOUND:                -1.049
REMARK  Name = ligands_pdb/F3_CHEMBL418010.pdb
REMARK  7 active torsions:
REMARK  status: ('A' for Active; 'I' for Inactive)
REMARK    1  A    between atoms: N2_5  and  C3_7
REMARK    2  A    between atoms: C5_10  and  N3_11
REMARK    3  A    between atoms: C6_13  and  C7_15
REMARK    4  A    between atoms: C12_24  and  O2_25
REMARK    5  A    between atoms: O2_25  and  C13_26
REMARK    6  A    between atoms: C16_34  and  C17_35
REMARK    7  A    between atoms: C18_40  and  C19_41
REMARK                            x       y       z     vdW  Elec       q    Type
REMARK                         _______ _______ _______ _____ _____    ______ ____
ROOT
ATOM      1  C3  F10     1     143.567  96.516 132.133  0.00  0.00    +0.038 A 
ATOM      2  C4  F10     1     143.156  96.591 133.480  0.00  0.00    +0.047 A 
ATOM      3  C5  F10     1     144.070  96.402 134.529  0.00  0.00    +0.035 A 
ATOM      4  C14 F10     1     145.419  96.145 134.233  0.00  0.00    +0.024 A 
ATOM      5  C15 F10     1     145.838  96.050 132.898  0.00  0.00    +0.007 A 
ATOM      6  C16 F10     1     144.921  96.224 131.845  0.00  0.00    -0.029 A 
ATOM      7  C17 F10     1     145.413  96.111 130.405  0.00  0.00    +0.045 C 
ENDROOT
BRANCH   1  11
ATOM      8  C1  F10     1     141.830 100.051 130.257  0.00  0.00    +0.116 A 
ATOM      9  N1  F10     1     142.458  99.019 130.849  0.00  0.00    -0.223 NA
ATOM     10  C2  F10     1     142.022  97.781 130.534  0.00  0.00    +0.220 A 
ATOM     11  N2  F10     1     142.662  96.672 131.079  0.00  0.00    -0.283 N 
ATOM     12  H2  F10     1     142.475  95.819 130.571  0.00  0.00    +0.155 HD
ATOM     13  N4  F10     1     141.036  97.496 129.661  0.00  0.00    -0.214 NA
ATOM     14  C18 F10     1     140.391  98.517 129.054  0.00  0.00    +0.077 A 
ATOM     15  C24 F10     1     140.780  99.850 129.346  0.00  0.00    +0.048 A 
BRANCH  14  16
ATOM     16  C19 F10     1     139.286  98.166 128.093  0.00  0.00    +0.019 A 
ATOM     17  C20 F10     1     138.722  96.865 128.032  0.00  0.00    +0.120 A 
ATOM     18  N5  F10     1     137.732  96.505 127.189  0.00  0.00    -0.263 NA
ATOM     19  C21 F10     1     137.241  97.432 126.346  0.00  0.00    +0.111 A 
ATOM     20  C22 F10     1     137.717  98.752 126.313  0.00  0.00    +0.020 A 
ATOM     21  C23 F10     1     138.745  99.123 127.193  0.00  0.00    +0.013 A 
ENDBRANCH  14  16
ENDBRANCH   1  11
BRANCH   3  22
ATOM     22  N3  F10     1     143.612  96.503 135.869  0.00  0.00    -0.281 N 
ATOM     23  H4  F10     1     142.973  95.778 136.165  0.00  0.00    +0.155 HD
ATOM     24  C6  F10     1     143.996  97.430 136.828  0.00  0.00    +0.252 C 
ATOM     25  O1  F10     1     144.821  98.297 136.587  0.00  0.00    -0.270 OA
BRANCH  24  26
ATOM     26  C7  F10     1     143.373  97.252 138.193  0.00  0.00    +0.079 A 
ATOM     27  C8  F10     1     142.319  96.326 138.364  0.00  0.00    +0.017 A 
ATOM     28  C9  F10     1     141.730  96.126 139.622  0.00  0.00    +0.001 A 
ATOM     29  C10 F10     1     142.185  96.852 140.730  0.00  0.00    +0.004 A 
ATOM     30  C11 F10     1     143.228  97.777 140.579  0.00  0.00    +0.046 A 
ATOM     31  C12 F10     1     143.829  97.984 139.318  0.00  0.00    +0.132 A 
BRANCH  31  32
ATOM     32  O2  F10     1     144.831  98.923 139.160  0.00  0.00    -0.494 OA
ATOM     33  C13 F10     1     145.275  99.810 140.200  0.00  0.00    +0.277 C 
ENDBRANCH  31  32
ENDBRANCH  24  26
ENDBRANCH   3  22
TORSDOF 5
ENDMDL
MODEL 4
REMARK VINA RESULT:    -9.127      2.916      9.854
REMARK INTER + INTRA:         -12.845
REMARK INTER:                 -11.949
REMARK INTRA:                  -0.896
REMARK UNBOUND:                -1.049
REMARK  Name = ligands_pdb/F3_CHEMBL418010.pdb
REMARK  7 active torsions:
REMARK  status: ('A' for Active; 'I' for Inactive)
REMARK    1  A    between atoms: N2_5  and  C3_7
REMARK    2  A    between atoms: C5_10  and  N3_11
REMARK    3  A    between atoms: C6_13  and  C7_15
REMARK    4  A    between atoms: C12_24  and  O2_25
REMARK    5  A    between atoms: O2_25  and  C13_26
REMARK    6  A    between atoms: C16_34  and  C17_35
REMARK    7  A    between atoms: C18_40  and  C19_41
REMARK                            x       y       z     vdW  Elec       q    Type
REMARK                         _______ _______ _______ _____ _____    ______ ____
ROOT
ATOM      1  C3  F10     1     143.906  97.634 133.126  0.00  0.00    +0.038 A 
ATOM      2  C4  F10     1     143.738  98.037 134.467  0.00  0.00    +0.047 A 
ATOM      3  C5  F10     1     144.627  97.615 135.468  0.00  0.00    +0.035 A 
ATOM      4  C14 F10     1     145.709  96.786 135.127  0.00  0.00    +0.024 A 
ATOM      5  C15 F10     1     145.877  96.362 133.801  0.00  0.00    +0.007 A 
ATOM      6  C16 F10     1     144.979  96.772 132.798  0.00  0.00    -0.029 A 
ATOM      7  C17 F10     1     145.192  96.290 131.367  0.00  0.00    +0.045 C 
ENDROOT
BRANCH   1  11
ATOM      8  C1  F10     1     140.129  95.940 131.746  0.00  0.00    +0.116 A 
ATOM      9  N1  F10     1     141.266  96.431 132.273  0.00  0.00    -0.223 NA
ATOM     10  C2  F10     1     141.858  97.443 131.605  0.00  0.00    +0.220 A 
ATOM     11  N2  F10     1     143.011  98.022 132.124  0.00  0.00    -0.283 N 
ATOM     12  H2  F10     1     143.205  98.935 131.735  0.00  0.00    +0.155 HD
ATOM     13  N4  F10     1     141.392  98.016 130.477  0.00  0.00    -0.214 NA
ATOM     14  C18 F10     1     140.252  97.539 129.930  0.00  0.00    +0.077 A 
ATOM     15  C24 F10     1     139.579  96.463 130.565  0.00  0.00    +0.048 A 
BRANCH  14  16
ATOM     16  C19 F10     1     139.764  98.192 128.664  0.00  0.00    +0.019 A 
ATOM     17  C20 F10     1     140.274  99.437 128.211  0.00  0.00    +0.120 A 
ATOM     18  N5  F10     1     139.868 100.059 127.085  0.00  0.00    -0.263 NA
ATOM     19  C21 F10     1     138.917  99.470 126.335  0.00  0.00    +0.111 A 
ATOM     20  C22 F10     1     138.338  98.239 126.680  0.00  0.00    +0.020 A 
ATOM     21  C23 F10     1     138.764  97.594 127.851  0.00  0.00    +0.013 A 
ENDBRANCH  14  16
ENDBRANCH   1  11
BRANCH   3  22
ATOM     22  N3  F10     1     144.427  98.060 136.801  0.00  0.00    -0.281 N 
ATOM     23  H4  F10     1     144.592  99.046 136.959  0.00  0.00    +0.155 HD
ATOM     24  C6  F10     1     143.963  97.320 137.880  0.00  0.00    +0.252 C 
ATOM     25  O1  F10     1     143.663  96.143 137.768  0.00  0.00    -0.270 OA
BRANCH  24  26
ATOM     26  C7  F10     1     143.798  98.087 139.173  0.00  0.00    +0.079 A 
ATOM     27  C8  F10     1     142.756  97.740 140.062  0.00  0.00    +0.017 A 
ATOM     28  C9  F10     1     142.586  98.422 141.277  0.00  0.00    +0.001 A 
ATOM     29  C10 F10     1     143.456  99.465 141.620  0.00  0.00    +0.004 A 
ATOM     30  C11 F10     1     144.493  99.826 140.748  0.00  0.00    +0.046 A 
ATOM     31  C12 F10     1     144.675  99.144 139.525  0.00  0.00    +0.132 A 
BRANCH  31  32
ATOM     32  O2  F10     1     145.673  99.522 138.648  0.00  0.00    -0.494 OA
ATOM     33  C13 F10     1     146.726 100.445 138.975  0.00  0.00    +0.277 C 
ENDBRANCH  31  32
ENDBRANCH  24  26
ENDBRANCH   3  22
TORSDOF 5
ENDMDL
MODEL 5
REMARK VINA RESULT:    -9.073      2.855      9.691
REMARK INTER + INTRA:         -12.774
REMARK INTER:                 -12.523
REMARK INTRA:                  -0.251
REMARK UNBOUND:                -1.049
REMARK  Name = ligands_pdb/F3_CHEMBL418010.pdb
REMARK  7 active torsions:
REMARK  status: ('A' for Active; 'I' for Inactive)
REMARK    1  A    between atoms: N2_5  and  C3_7
REMARK    2  A    between atoms: C5_10  and  N3_11
REMARK    3  A    between atoms: C6_13  and  C7_15
REMARK    4  A    between atoms: C12_24  and  O2_25
REMARK    5  A    between atoms: O2_25  and  C13_26
REMARK    6  A    between atoms: C16_34  and  C17_35
REMARK    7  A    between atoms: C18_40  and  C19_41
REMARK                            x       y       z     vdW  Elec       q    Type
REMARK                         _______ _______ _______ _____ _____    ______ ____
ROOT
ATOM      1  C3  F10     1     144.065  96.954 132.533  0.00  0.00    +0.038 A 
ATOM      2  C4  F10     1     143.794  97.390 133.847  0.00  0.00    +0.047 A 
ATOM      3  C5  F10     1     144.711  97.170 134.887  0.00  0.00    +0.035 A 
ATOM      4  C14 F10     1     145.923  96.515 134.613  0.00  0.00    +0.024 A 
ATOM      5  C15 F10     1     146.197  96.061 133.315  0.00  0.00    +0.007 A 
ATOM      6  C16 F10     1     145.273  96.267 132.274  0.00  0.00    -0.029 A 
ATOM      7  C17 F10     1     145.605  95.757 130.875  0.00  0.00    +0.045 C 
ENDROOT
BRANCH   1  11
ATOM      8  C1  F10     1     140.945  99.931 131.870  0.00  0.00    +0.116 A 
ATOM      9  N1  F10     1     141.967  99.092 132.121  0.00  0.00    -0.223 NA
ATOM     10  C2  F10     1     142.085  98.018 131.313  0.00  0.00    +0.220 A 
ATOM     11  N2  F10     1     143.148  97.140 131.494  0.00  0.00    -0.283 N 
ATOM     12  H2  F10     1     143.324  96.560 130.685  0.00  0.00    +0.155 HD
ATOM     13  N4  F10     1     141.286  97.735 130.265  0.00  0.00    -0.214 NA
ATOM     14  C18 F10     1     140.253  98.564 129.993  0.00  0.00    +0.077 A 
ATOM     15  C24 F10     1     140.052  99.707 130.810  0.00  0.00    +0.048 A 
BRANCH  14  16
ATOM     16  C19 F10     1     139.372  98.214 128.824  0.00  0.00    +0.019 A 
ATOM     17  C20 F10     1     138.908  96.891 128.596  0.00  0.00    +0.120 A 
ATOM     18  N5  F10     1     138.118  96.531 127.563  0.00  0.00    -0.263 NA
ATOM     19  C21 F10     1     137.740  97.479 126.686  0.00  0.00    +0.111 A 
ATOM     20  C22 F10     1     138.133  98.821 126.806  0.00  0.00    +0.020 A 
ATOM     21  C23 F10     1     138.954  99.192 127.882  0.00  0.00    +0.013 A 
ENDBRANCH  14  16
ENDBRANCH   1  11
BRANCH   3  22
ATOM     22  N3  F10     1     144.401  97.641 136.190  0.00  0.00    -0.281 N 
ATOM     23  H4  F10     1     144.446  98.644 136.311  0.00  0.00    +0.155 HD
ATOM     24  C6  F10     1     143.976  96.896 137.281  0.00  0.00    +0.252 C 
ATOM     25  O1  F10     1     143.818  95.688 137.210  0.00  0.00    -0.270 OA
BRANCH  24  26
ATOM     26  C7  F10     1     143.668  97.688 138.531  0.00  0.00    +0.079 A 
ATOM     27  C8  F10     1     144.620  98.607 139.027  0.00  0.00    +0.017 A 
ATOM     28  C9  F10     1     144.357  99.369 140.176  0.00  0.00    +0.001 A 
ATOM     29  C10 F10     1     143.138  99.220 140.849  0.00  0.00    +0.004 A 
ATOM     30  C11 F10     1     142.183  98.311 140.374  0.00  0.00    +0.046 A 
ATOM     31  C12 F10     1     142.436  97.542 139.217  0.00  0.00    +0.132 A 
BRANCH  31  32
ATOM     32  O2  F10     1     141.512  96.617 138.768  0.00  0.00    -0.494 OA
ATOM     33  C13 F10     1     141.362  95.297 139.317  0.00  0.00    +0.277 C 
ENDBRANCH  31  32
ENDBRANCH  24  26
ENDBRANCH   3  22
TORSDOF 5
ENDMDL
MODEL 6
REMARK VINA RESULT:    -8.295      3.011      5.605
REMARK INTER + INTRA:         -11.769
REMARK INTER:                 -10.830
REMARK INTRA:                  -0.939
REMARK UNBOUND:                -1.049
REMARK  Name = ligands_pdb/F3_CHEMBL418010.pdb
REMARK  7 active torsions:
REMARK  status: ('A' for Active; 'I' for Inactive)
REMARK    1  A    between atoms: N2_5  and  C3_7
REMARK    2  A    between atoms: C5_10  and  N3_11
REMARK    3  A    between atoms: C6_13  and  C7_15
REMARK    4  A    between atoms: C12_24  and  O2_25
REMARK    5  A    between atoms: O2_25  and  C13_26
REMARK    6  A    between atoms: C16_34  and  C17_35
REMARK    7  A    between atoms: C18_40  and  C19_41
REMARK                            x       y       z     vdW  Elec       q    Type
REMARK                         _______ _______ _______ _____ _____    ______ ____
ROOT
ATOM      1  C3  F10     1     143.958  97.233 134.039  0.00  0.00    +0.038 A 
ATOM      2  C4  F10     1     144.877  96.465 133.292  0.00  0.00    +0.047 A 
ATOM      3  C5  F10     1     144.592  96.074 131.974  0.00  0.00    +0.035 A 
ATOM      4  C14 F10     1     143.377  96.463 131.385  0.00  0.00    +0.024 A 
ATOM      5  C15 F10     1     142.447  97.210 132.123  0.00  0.00    +0.007 A 
ATOM      6  C16 F10     1     142.724  97.590 133.449  0.00  0.00    -0.029 A 
ATOM      7  C17 F10     1     141.688  98.401 134.221  0.00  0.00    +0.045 C 
ENDROOT
BRANCH   1  11
ATOM      8  C1  F10     1     142.549  95.659 137.857  0.00  0.00    +0.116 A 
ATOM      9  N1  F10     1     142.982  96.041 136.641  0.00  0.00    -0.223 NA
ATOM     10  C2  F10     1     143.702  97.182 136.584  0.00  0.00    +0.220 A 
ATOM     11  N2  F10     1     144.217  97.603 135.362  0.00  0.00    -0.283 N 
ATOM     12  H2  F10     1     144.968  98.273 135.460  0.00  0.00    +0.155 HD
ATOM     13  N4  F10     1     144.044  97.947 137.640  0.00  0.00    -0.214 NA
ATOM     14  C18 F10     1     143.620  97.582 138.870  0.00  0.00    +0.077 A 
ATOM     15  C24 F10     1     142.842  96.404 139.011  0.00  0.00    +0.048 A 
BRANCH  14  16
ATOM     16  C19 F10     1     144.007  98.464 140.027  0.00  0.00    +0.019 A 
ATOM     17  C20 F10     1     143.398  98.346 141.305  0.00  0.00    +0.120 A 
ATOM     18  N5  F10     1     143.713  99.114 142.369  0.00  0.00    -0.263 NA
ATOM     19  C21 F10     1     144.662 100.056 142.220  0.00  0.00    +0.111 A 
ATOM     20  C22 F10     1     145.336 100.267 141.007  0.00  0.00    +0.020 A 
ATOM     21  C23 F10     1     145.007  99.465 139.903  0.00  0.00    +0.013 A 
ENDBRANCH  14  16
ENDBRANCH   1  11
BRANCH   3  22
ATOM     22  N3  F10     1     145.553  95.316 131.257  0.00  0.00    -0.281 N 
ATOM     23  H4  F10     1     145.349  94.330 131.166  0.00  0.00    +0.155 HD
ATOM     24  C6  F10     1     146.689  95.784 130.610  0.00  0.00    +0.252 C 
ATOM     25  O1  F10     1     146.977  96.969 130.597  0.00  0.00    -0.270 OA
BRANCH  24  26
ATOM     26  C7  F10     1     147.499  94.738 129.878  0.00  0.00    +0.079 A 
ATOM     27  C8  F10     1     147.760  94.898 128.498  0.00  0.00    +0.017 A 
ATOM     28  C9  F10     1     148.522  93.953 127.793  0.00  0.00    +0.001 A 
ATOM     29  C10 F10     1     149.031  92.830 128.458  0.00  0.00    +0.004 A 
ATOM     30  C11 F10     1     148.779  92.653 129.826  0.00  0.00    +0.046 A 
ATOM     31  C12 F10     1     148.017  93.600 130.544  0.00  0.00    +0.132 A 
BRANCH  31  32
ATOM     32  O2  F10     1     147.735  93.408 131.884  0.00  0.00    -0.494 OA
ATOM     33  C13 F10     1     147.930  92.164 132.578  0.00  0.00    +0.277 C 
ENDBRANCH  31  32
ENDBRANCH  24  26
ENDBRANCH   3  22
TORSDOF 5
ENDMDL
MODEL 7
REMARK VINA RESULT:    -8.096      2.891      4.934
REMARK INTER + INTRA:         -11.512
REMARK INTER:                 -10.527
REMARK INTRA:                  -0.985
REMARK UNBOUND:                -1.049
REMARK  Name = ligands_pdb/F3_CHEMBL418010.pdb
REMARK  7 active torsions:
REMARK  status: ('A' for Active; 'I' for Inactive)
REMARK    1  A    between atoms: N2_5  and  C3_7
REMARK    2  A    between atoms: C5_10  and  N3_11
REMARK    3  A    between atoms: C6_13  and  C7_15
REMARK    4  A    between atoms: C12_24  and  O2_25
REMARK    5  A    between atoms: O2_25  and  C13_26
REMARK    6  A    between atoms: C16_34  and  C17_35
REMARK    7  A    between atoms: C18_40  and  C19_41
REMARK                            x       y       z     vdW  Elec       q    Type
REMARK                         _______ _______ _______ _____ _____    ______ ____
ROOT
ATOM      1  C3  F10     1     142.752  97.485 133.894  0.00  0.00    +0.038 A 
ATOM      2  C4  F10     1     143.450  96.685 132.964  0.00  0.00    +0.047 A 
ATOM      3  C5  F10     1     142.899  96.385 131.708  0.00  0.00    +0.035 A 
ATOM      4  C14 F10     1     141.637  96.898 131.367  0.00  0.00    +0.024 A 
ATOM      5  C15 F10     1     140.924  97.679 132.288  0.00  0.00    +0.007 A 
ATOM      6  C16 F10     1     141.468  97.969 133.553  0.00  0.00    -0.029 A 
ATOM      7  C17 F10     1     140.663  98.819 134.530  0.00  0.00    +0.045 C 
ENDROOT
BRANCH   1  11
ATOM      8  C1  F10     1     142.315  95.507 137.758  0.00  0.00    +0.116 A 
ATOM      9  N1  F10     1     142.446  96.018 136.520  0.00  0.00    -0.223 NA
ATOM     10  C2  F10     1     143.070  97.211 136.417  0.00  0.00    +0.220 A 
ATOM     11  N2  F10     1     143.276  97.767 135.159  0.00  0.00    -0.283 N 
ATOM     12  H2  F10     1     143.991  98.481 135.155  0.00  0.00    +0.155 HD
ATOM     13  N4  F10     1     143.593  97.912 137.442  0.00  0.00    -0.214 NA
ATOM     14  C18 F10     1     143.474  97.419 138.694  0.00  0.00    +0.077 A 
ATOM     15  C24 F10     1     142.815  96.177 138.887  0.00  0.00    +0.048 A 
BRANCH  14  16
ATOM     16  C19 F10     1     144.057  98.232 139.819  0.00  0.00    +0.019 A 
ATOM     17  C20 F10     1     143.837  97.904 141.183  0.00  0.00    +0.120 A 
ATOM     18  N5  F10     1     144.339  98.604 142.222  0.00  0.00    -0.263 NA
ATOM     19  C21 F10     1     145.097  99.684 141.960  0.00  0.00    +0.111 A 
ATOM     20  C22 F10     1     145.387 100.106 140.653  0.00  0.00    +0.020 A 
ATOM     21  C23 F10     1     144.864  99.376 139.575  0.00  0.00    +0.013 A 
ENDBRANCH  14  16
ENDBRANCH   1  11
BRANCH   3  22
ATOM     22  N3  F10     1     143.646  95.590 130.800  0.00  0.00    -0.281 N 
ATOM     23  H4  F10     1     144.558  95.951 130.556  0.00  0.00    +0.155 HD
ATOM     24  C6  F10     1     143.300  94.351 130.276  0.00  0.00    +0.252 C 
ATOM     25  O1  F10     1     142.253  93.799 130.574  0.00  0.00    -0.270 OA
BRANCH  24  26
ATOM     26  C7  F10     1     144.330  93.717 129.370  0.00  0.00    +0.079 A 
ATOM     27  C8  F10     1     143.921  93.128 128.152  0.00  0.00    +0.017 A 
ATOM     28  C9  F10     1     144.855  92.545 127.282  0.00  0.00    +0.001 A 
ATOM     29  C10 F10     1     146.214  92.537 127.620  0.00  0.00    +0.004 A 
ATOM     30  C11 F10     1     146.639  93.113 128.826  0.00  0.00    +0.046 A 
ATOM     31  C12 F10     1     145.707  93.706 129.706  0.00  0.00    +0.132 A 
BRANCH  31  32
ATOM     32  O2  F10     1     146.119  94.240 130.913  0.00  0.00    -0.494 OA
ATOM     33  C13 F10     1     147.186  95.194 131.050  0.00  0.00    +0.277 C 
ENDBRANCH  31  32
ENDBRANCH  24  26
ENDBRANCH   3  22
TORSDOF 5
ENDMDL
MODEL 8
REMARK VINA RESULT:    -7.933      2.945      6.021
REMARK INTER + INTRA:         -11.302
REMARK INTER:                 -10.410
REMARK INTRA:                  -0.891
REMARK UNBOUND:                -1.049
REMARK  Name = ligands_pdb/F3_CHEMBL418010.pdb
REMARK  7 active torsions:
REMARK  status: ('A' for Active; 'I' for Inactive)
REMARK    1  A    between atoms: N2_5  and  C3_7
REMARK    2  A    between atoms: C5_10  and  N3_11
REMARK    3  A    between atoms: C6_13  and  C7_15
REMARK    4  A    between atoms: C12_24  and  O2_25
REMARK    5  A    between atoms: O2_25  and  C13_26
REMARK    6  A    between atoms: C16_34  and  C17_35
REMARK    7  A    between atoms: C18_40  and  C19_41
REMARK                            x       y       z     vdW  Elec       q    Type
REMARK                         _______ _______ _______ _____ _____    ______ ____
ROOT
ATOM      1  C3  F10     1     139.896  98.788 130.760  0.00  0.00    +0.038 A 
ATOM      2  C4  F10     1     139.752  97.756 129.808  0.00  0.00    +0.047 A 
ATOM      3  C5  F10     1     139.278  98.023 128.514  0.00  0.00    +0.035 A 
ATOM      4  C14 F10     1     138.951  99.342 128.157  0.00  0.00    +0.024 A 
ATOM      5  C15 F10     1     139.072 100.375 129.098  0.00  0.00    +0.007 A 
ATOM      6  C16 F10     1     139.533 100.106 130.400  0.00  0.00    -0.029 A 
ATOM      7  C17 F10     1     139.650 101.254 131.398  0.00  0.00    +0.045 C 
ENDROOT
BRANCH   1  11
ATOM      8  C1  F10     1     143.885  98.294 132.457  0.00  0.00    +0.116 A 
ATOM      9  N1  F10     1     142.698  98.521 131.866  0.00  0.00    -0.223 NA
ATOM     10  C2  F10     1     141.594  98.271 132.602  0.00  0.00    +0.220 A 
ATOM     11  N2  F10     1     140.339  98.531 132.061  0.00  0.00    -0.283 N 
ATOM     12  H2  F10     1     139.614  98.602 132.761  0.00  0.00    +0.155 HD
ATOM     13  N4  F10     1     141.585  97.844 133.880  0.00  0.00    -0.214 NA
ATOM     14  C18 F10     1     142.766  97.610 134.495  0.00  0.00    +0.077 A 
ATOM     15  C24 F10     1     143.971  97.832 133.781  0.00  0.00    +0.048 A 
BRANCH  14  16
ATOM     16  C19 F10     1     142.722  97.122 135.918  0.00  0.00    +0.019 A 
ATOM     17  C20 F10     1     143.656  96.180 136.424  0.00  0.00    +0.120 A 
ATOM     18  N5  F10     1     143.655  95.715 137.691  0.00  0.00    -0.263 NA
ATOM     19  C21 F10     1     142.711  96.165 138.537  0.00  0.00    +0.111 A 
ATOM     20  C22 F10     1     141.734  97.097 138.154  0.00  0.00    +0.020 A 
ATOM     21  C23 F10     1     141.739  97.580 136.837  0.00  0.00    +0.013 A 
ENDBRANCH  14  16
ENDBRANCH   1  11
BRANCH   3  22
ATOM     22  N3  F10     1     139.165  96.955 127.587  0.00  0.00    -0.281 N 
ATOM     23  H4  F10     1     138.414  96.302 127.767  0.00  0.00    +0.155 HD
ATOM     24  C6  F10     1     139.913  96.751 126.435  0.00  0.00    +0.252 C 
ATOM     25  O1  F10     1     140.790  97.528 126.094  0.00  0.00    -0.270 OA
BRANCH  24  26
ATOM     26  C7  F10     1     139.524  95.544 125.611  0.00  0.00    +0.079 A 
ATOM     27  C8  F10     1     138.260  95.509 124.979  0.00  0.00    +0.017 A 
ATOM     28  C9  F10     1     137.876  94.411 124.195  0.00  0.00    +0.001 A 
ATOM     29  C10 F10     1     138.749  93.328 124.033  0.00  0.00    +0.004 A 
ATOM     30  C11 F10     1     140.005  93.343 124.656  0.00  0.00    +0.046 A 
ATOM     31  C12 F10     1     140.403  94.445 125.444  0.00  0.00    +0.132 A 
BRANCH  31  32
ATOM     32  O2  F10     1     141.625  94.446 126.090  0.00  0.00    -0.494 OA
ATOM     33  C13 F10     1     142.881  94.694 125.437  0.00  0.00    +0.277 C 
ENDBRANCH  31  32
ENDBRANCH  24  26
ENDBRANCH   3  22
TORSDOF 5
ENDMDL
MODEL 9
REMARK VINA RESULT:    -7.807      4.021     10.167
REMARK INTER + INTRA:         -11.139
REMARK INTER:                 -10.456
REMARK INTRA:                  -0.683
REMARK UNBOUND:                -1.049
REMARK  Name = ligands_pdb/F3_CHEMBL418010.pdb
REMARK  7 active torsions:
REMARK  status: ('A' for Active; 'I' for Inactive)
REMARK    1  A    between atoms: N2_5  and  C3_7
REMARK    2  A    between atoms: C5_10  and  N3_11
REMARK    3  A    between atoms: C6_13  and  C7_15
REMARK    4  A    between atoms: C12_24  and  O2_25
REMARK    5  A    between atoms: O2_25  and  C13_26
REMARK    6  A    between atoms: C16_34  and  C17_35
REMARK    7  A    between atoms: C18_40  and  C19_41
REMARK                            x       y       z     vdW  Elec       q    Type
REMARK                         _______ _______ _______ _____ _____    ______ ____
ROOT
ATOM      1  C3  F10     1     144.212  97.458 131.745  0.00  0.00    +0.038 A 
ATOM      2  C4  F10     1     143.893  97.164 133.087  0.00  0.00    +0.047 A 
ATOM      3  C5  F10     1     143.401  98.156 133.950  0.00  0.00    +0.035 A 
ATOM      4  C14 F10     1     143.213  99.462 133.466  0.00  0.00    +0.024 A 
ATOM      5  C15 F10     1     143.543  99.772 132.139  0.00  0.00    +0.007 A 
ATOM      6  C16 F10     1     144.050  98.783 131.277  0.00  0.00    -0.029 A 
ATOM      7  C17 F10     1     144.400  99.158 129.840  0.00  0.00    +0.045 C 
ENDROOT
BRANCH   1  11
ATOM      8  C1  F10     1     148.173  95.664 131.390  0.00  0.00    +0.116 A 
ATOM      9  N1  F10     1     146.968  96.221 131.608  0.00  0.00    -0.223 NA
ATOM     10  C2  F10     1     146.009  95.976 130.689  0.00  0.00    +0.220 A 
ATOM     11  N2  F10     1     144.730  96.487 130.884  0.00  0.00    -0.283 N 
ATOM     12  H2  F10     1     144.029  96.018 130.327  0.00  0.00    +0.155 HD
ATOM     13  N4  F10     1     146.153  95.202 129.595  0.00  0.00    -0.214 NA
ATOM     14  C18 F10     1     147.355  94.632 129.356  0.00  0.00    +0.077 A 
ATOM     15  C24 F10     1     148.419  94.857 130.267  0.00  0.00    +0.048 A 
BRANCH  14  16
ATOM     16  C19 F10     1     147.486  93.784 128.120  0.00  0.00    +0.019 A 
ATOM     17  C20 F10     1     147.427  92.365 128.166  0.00  0.00    +0.120 A 
ATOM     18  N5  F10     1     147.540  91.565 127.085  0.00  0.00    -0.263 NA
ATOM     19  C21 F10     1     147.722  92.138 125.881  0.00  0.00    +0.111 A 
ATOM     20  C22 F10     1     147.796  93.529 125.708  0.00  0.00    +0.020 A 
ATOM     21  C23 F10     1     147.676  94.358 126.834  0.00  0.00    +0.013 A 
ENDBRANCH  14  16
ENDBRANCH   1  11
BRANCH   3  22
ATOM     22  N3  F10     1     143.079  97.809 135.288  0.00  0.00    -0.281 N 
ATOM     23  H4  F10     1     142.104  97.602 135.460  0.00  0.00    +0.155 HD
ATOM     24  C6  F10     1     143.952  97.650 136.355  0.00  0.00    +0.252 C 
ATOM     25  O1  F10     1     145.156  97.801 136.227  0.00  0.00    -0.270 OA
BRANCH  24  26
ATOM     26  C7  F10     1     143.317  97.218 137.658  0.00  0.00    +0.079 A 
ATOM     27  C8  F10     1     142.347  96.190 137.654  0.00  0.00    +0.017 A 
ATOM     28  C9  F10     1     141.751  95.756 138.848  0.00  0.00    +0.001 A 
ATOM     29  C10 F10     1     142.114  96.346 140.065  0.00  0.00    +0.004 A 
ATOM     30  C11 F10     1     143.071  97.370 140.088  0.00  0.00    +0.046 A 
ATOM     31  C12 F10     1     143.680  97.812 138.892  0.00  0.00    +0.132 A 
BRANCH  31  32
ATOM     32  O2  F10     1     144.596  98.847 138.908  0.00  0.00    -0.494 OA
ATOM     33  C13 F10     1     145.117  99.444 140.107  0.00  0.00    +0.277 C 
ENDBRANCH  31  32
ENDBRANCH  24  26
ENDBRANCH   3  22
TORSDOF 5
ENDMDL
MODEL 10
REMARK VINA RESULT:    -7.618      4.169      7.805
REMARK INTER + INTRA:         -10.895
REMARK INTER:                 -10.005
REMARK INTRA:                  -0.889
REMARK UNBOUND:                -1.049
REMARK  Name = ligands_pdb/F3_CHEMBL418010.pdb
REMARK  7 active torsions:
REMARK  status: ('A' for Active; 'I' for Inactive)
REMARK    1  A    between atoms: N2_5  and  C3_7
REMARK    2  A    between atoms: C5_10  and  N3_11
REMARK    3  A    between atoms: C6_13  and  C7_15
REMARK    4  A    between atoms: C12_24  and  O2_25
REMARK    5  A    between atoms: O2_25  and  C13_26
REMARK    6  A    between atoms: C16_34  and  C17_35
REMARK    7  A    between atoms: C18_40  and  C19_41
REMARK                            x       y       z     vdW  Elec       q    Type
REMARK                         _______ _______ _______ _____ _____    ______ ____
ROOT
ATOM      1  C3  F10     1     139.302  98.081 128.795  0.00  0.00    +0.038 A 
ATOM      2  C4  F10     1     139.047  96.929 128.021  0.00  0.00    +0.047 A 
ATOM      3  C5  F10     1     138.390  97.016 126.783  0.00  0.00    +0.035 A 
ATOM      4  C14 F10     1     137.989  98.273 126.301  0.00  0.00    +0.024 A 
ATOM      5  C15 F10     1     138.220  99.425 127.068  0.00  0.00    +0.007 A 
ATOM      6  C16 F10     1     138.865  99.338 128.315  0.00  0.00    -0.029 A 
ATOM      7  C17 F10     1     139.096 100.611 129.122  0.00  0.00    +0.045 C 
ENDROOT
BRANCH   1  11
ATOM      8  C1  F10     1     143.394  98.883 130.077  0.00  0.00    +0.116 A 
ATOM      9  N1  F10     1     142.143  98.718 129.610  0.00  0.00    -0.223 NA
ATOM     10  C2  F10     1     141.248  98.158 130.452  0.00  0.00    +0.220 A 
ATOM     11  N2  F10     1     139.928  98.005 130.042  0.00  0.00    -0.283 N 
ATOM     12  H2  F10     1     139.289  97.865 130.812  0.00  0.00    +0.155 HD
ATOM     13  N4  F10     1     141.498  97.780 131.721  0.00  0.00    -0.214 NA
ATOM     14  C18 F10     1     142.747  97.936 132.212  0.00  0.00    +0.077 A 
ATOM     15  C24 F10     1     143.749  98.502 131.382  0.00  0.00    +0.048 A 
BRANCH  14  16
ATOM     16  C19 F10     1     142.996  97.493 133.629  0.00  0.00    +0.019 A 
ATOM     17  C20 F10     1     142.026  97.653 134.653  0.00  0.00    +0.120 A 
ATOM     18  N5  F10     1     142.205  97.271 135.935  0.00  0.00    -0.263 NA
ATOM     19  C21 F10     1     143.376  96.702 136.276  0.00  0.00    +0.111 A 
ATOM     20  C22 F10     1     144.411  96.490 135.352  0.00  0.00    +0.020 A 
ATOM     21  C23 F10     1     144.221  96.887 134.019  0.00  0.00    +0.013 A 
ENDBRANCH  14  16
ENDBRANCH   1  11
BRANCH   3  22
ATOM     22  N3  F10     1     138.171  95.831 126.034  0.00  0.00    -0.281 N 
ATOM     23  H4  F10     1     137.341  95.309 126.282  0.00  0.00    +0.155 HD
ATOM     24  C6  F10     1     138.917  95.355 124.964  0.00  0.00    +0.252 C 
ATOM     25  O1  F10     1     139.891  95.958 124.543  0.00  0.00    -0.270 OA
BRANCH  24  26
ATOM     26  C7  F10     1     138.403  94.084 124.327  0.00  0.00    +0.079 A 
ATOM     27  C8  F10     1     137.343  94.150 123.395  0.00  0.00    +0.017 A 
ATOM     28  C9  F10     1     136.855  92.991 122.773  0.00  0.00    +0.001 A 
ATOM     29  C10 F10     1     137.417  91.745 123.078  0.00  0.00    +0.004 A 
ATOM     30  C11 F10     1     138.468  91.659 124.003  0.00  0.00    +0.046 A 
ATOM     31  C12 F10     1     138.969  92.821 124.631  0.00  0.00    +0.132 A 
BRANCH  31  32
ATOM     32  O2  F10     1     139.978  92.734 125.571  0.00  0.00    -0.494 OA
ATOM     33  C13 F10     1     141.161  91.932 125.413  0.00  0.00    +0.277 C 
ENDBRANCH  31  32
ENDBRANCH  24  26
ENDBRANCH   3  22
TORSDOF 5
ENDMDL
