MODEL 1
REMARK VINA RESULT:    -6.966      0.000      0.000
REMARK INTER + INTRA:          -9.781
REMARK INTER:                  -9.002
REMARK INTRA:                  -0.779
REMARK UNBOUND:                -0.779
REMARK  Name = ligands_pdb/TRN_CHEMBL291335.pdb
REMARK  8 active torsions:
REMARK  status: ('A' for Active; 'I' for Inactive)
REMARK    1  A    between atoms: C1_1  and  O1_2
REMARK    2  A    between atoms: O1_2  and  C2_3
REMARK    3  A    between atoms: C2_3  and  C3_5
REMARK    4  A    between atoms: C5_7  and  C6_8
REMARK    5  A    between atoms: C9_11  and  O3_12
REMARK    6  A    between atoms: O3_12  and  C10_13
REMARK    7  A    between atoms: C13_16  and  C14_17
REMARK    8  A    between atoms: N2_23  and  C19_24
REMARK                            x       y       z     vdW  Elec       q    Type
REMARK                         _______ _______ _______ _____ _____    ______ ____
ROOT
ATOM      1  C3  T11     1     139.899 100.288 130.621  0.00  0.00    +0.124 A 
ATOM      2  C4  T11     1     140.704  99.874 131.677  0.00  0.00    +0.031 A 
ATOM      3  C5  T11     1     141.054  98.551 131.793  0.00  0.00    +0.007 A 
ATOM      4  C13 T11     1     140.642  97.606 130.874  0.00  0.00    +0.061 A 
ATOM      5  N2  T11     1     139.852  97.972 129.785  0.00  0.00    -0.310 N 
ATOM      6  C19 T11     1     139.464  96.938 128.795  0.00  0.00    +0.152 C 
ATOM      7  C20 T11     1     139.420  99.294 129.601  0.00  0.00    +0.266 A 
ATOM      8  O4  T11     1     138.698  99.579 128.658  0.00  0.00    -0.267 OA
ENDROOT
BRANCH   3   9
ATOM      9  C6  T11     1     141.881  98.178 132.945  0.00  0.00    -0.016 A 
ATOM     10  C7  T11     1     141.289  97.993 134.208  0.00  0.00    +0.012 A 
ATOM     11  C8  T11     1     142.077  97.641 135.315  0.00  0.00    +0.046 A 
ATOM     12  C9  T11     1     143.463  97.465 135.173  0.00  0.00    +0.120 A 
ATOM     13  C11 T11     1     144.059  97.641 133.909  0.00  0.00    +0.046 A 
ATOM     14  C12 T11     1     143.269  97.991 132.801  0.00  0.00    +0.012 A 
BRANCH  12  15
ATOM     15  O3  T11     1     144.186  97.121 136.297  0.00  0.00    -0.495 OA
ATOM     16  C10 T11     1     143.632  97.129 137.625  0.00  0.00    +0.277 C 
ENDBRANCH  12  15
ENDBRANCH   3   9
BRANCH   4  17
ATOM     17  C14 T11     1     141.074  96.217 131.078  0.00  0.00    +0.017 A 
ATOM     18  C15 T11     1     140.447  95.400 132.036  0.00  0.00    +0.013 A 
ATOM     19  C16 T11     1     140.900  94.082 132.200  0.00  0.00    +0.020 A 
ATOM     20  C17 T11     1     141.962  93.626 131.398  0.00  0.00    +0.111 A 
ATOM     21  N1  T11     1     142.564  94.402 130.475  0.00  0.00    -0.263 NA
ATOM     22  C18 T11     1     142.127  95.669 130.319  0.00  0.00    +0.120 A 
ENDBRANCH   4  17
BRANCH   1  23
ATOM     23  C2  T11     1     139.583 101.634 130.585  0.00  0.00    +0.344 C 
ATOM     24  O2  T11     1     140.124 102.440 129.829  0.00  0.00    -0.245 OA
BRANCH  23  26
ATOM     25  C1  T11     1     137.320 102.479 130.940  0.00  0.00    +0.280 C 
ATOM     26  O1  T11     1     138.610 102.081 131.443  0.00  0.00    -0.464 OA
ENDBRANCH  23  26
ENDBRANCH   1  23
TORSDOF 5
ENDMDL
MODEL 2
REMARK VINA RESULT:    -6.912      2.038      6.602
REMARK INTER + INTRA:          -9.711
REMARK INTER:                  -8.893
REMARK INTRA:                  -0.818
REMARK UNBOUND:                -0.779
REMARK  Name = ligands_pdb/TRN_CHEMBL291335.pdb
REMARK  8 active torsions:
REMARK  status: ('A' for Active; 'I' for Inactive)
REMARK    1  A    between atoms: C1_1  and  O1_2
REMARK    2  A    between atoms: O1_2  and  C2_3
REMARK    3  A    between atoms: C2_3  and  C3_5
REMARK    4  A    between atoms: C5_7  and  C6_8
REMARK    5  A    between atoms: C9_11  and  O3_12
REMARK    6  A    between atoms: O3_12  and  C10_13
REMARK    7  A    between atoms: C13_16  and  C14_17
REMARK    8  A    between atoms: N2_23  and  C19_24
REMARK                            x       y       z     vdW  Elec       q    Type
REMARK                         _______ _______ _______ _____ _____    ______ ____
ROOT
ATOM      1  C3  T11     1     143.854  97.051 135.120  0.00  0.00    +0.124 A 
ATOM      2  C4  T11     1     142.878  97.626 134.312  0.00  0.00    +0.031 A 
ATOM      3  C5  T11     1     143.020  97.604 132.946  0.00  0.00    +0.007 A 
ATOM      4  C13 T11     1     144.106  97.006 132.337  0.00  0.00    +0.061 A 
ATOM      5  N2  T11     1     145.101  96.395 133.099  0.00  0.00    -0.310 N 
ATOM      6  C19 T11     1     146.230  95.727 132.410  0.00  0.00    +0.152 C 
ATOM      7  C20 T11     1     145.056  96.396 134.502  0.00  0.00    +0.266 A 
ATOM      8  O4  T11     1     145.961  95.886 135.145  0.00  0.00    -0.267 OA
ENDROOT
BRANCH   3   9
ATOM      9  C6  T11     1     141.969  98.253 132.155  0.00  0.00    -0.016 A 
ATOM     10  C7  T11     1     142.098  99.603 131.784  0.00  0.00    +0.012 A 
ATOM     11  C8  T11     1     141.093 100.232 131.032  0.00  0.00    +0.046 A 
ATOM     12  C9  T11     1     139.951  99.517 130.638  0.00  0.00    +0.120 A 
ATOM     13  C11 T11     1     139.821  98.161 131.000  0.00  0.00    +0.046 A 
ATOM     14  C12 T11     1     140.829  97.533 131.751  0.00  0.00    +0.012 A 
BRANCH  12  15
ATOM     15  O3  T11     1     138.995 100.186 129.900  0.00  0.00    -0.495 OA
ATOM     16  C10 T11     1     138.764 101.602 130.010  0.00  0.00    +0.277 C 
ENDBRANCH  12  15
ENDBRANCH   3   9
BRANCH   4  17
ATOM     17  C14 T11     1     144.165  97.025 130.870  0.00  0.00    +0.017 A 
ATOM     18  C15 T11     1     144.808  98.074 130.188  0.00  0.00    +0.013 A 
ATOM     19  C16 T11     1     144.832  98.052 128.785  0.00  0.00    +0.020 A 
ATOM     20  C17 T11     1     144.216  96.982 128.113  0.00  0.00    +0.111 A 
ATOM     21  N1  T11     1     143.602  95.972 128.760  0.00  0.00    -0.263 NA
ATOM     22  C18 T11     1     143.580  95.994 130.108  0.00  0.00    +0.120 A 
ENDBRANCH   4  17
BRANCH   1  23
ATOM     23  C2  T11     1     143.641  97.128 136.484  0.00  0.00    +0.344 C 
ATOM     24  O2  T11     1     144.333  97.806 137.243  0.00  0.00    -0.245 OA
BRANCH  23  26
ATOM     25  C1  T11     1     142.648  95.927 138.363  0.00  0.00    +0.280 C 
ATOM     26  O1  T11     1     142.597  96.407 137.006  0.00  0.00    -0.464 OA
ENDBRANCH  23  26
ENDBRANCH   1  23
TORSDOF 5
ENDMDL
MODEL 3
REMARK VINA RESULT:    -6.737      4.119      6.743
REMARK INTER + INTRA:          -9.484
REMARK INTER:                  -8.573
REMARK INTRA:                  -0.912
REMARK UNBOUND:                -0.779
REMARK  Name = ligands_pdb/TRN_CHEMBL291335.pdb
REMARK  8 active torsions:
REMARK  status: ('A' for Active; 'I' for Inactive)
REMARK    1  A    between atoms: C1_1  and  O1_2
REMARK    2  A    between atoms: O1_2  and  C2_3
REMARK    3  A    between atoms: C2_3  and  C3_5
REMARK    4  A    between atoms: C5_7  and  C6_8
REMARK    5  A    between atoms: C9_11  and  O3_12
REMARK    6  A    between atoms: O3_12  and  C10_13
REMARK    7  A    between atoms: C13_16  and  C14_17
REMARK    8  A    between atoms: N2_23  and  C19_24
REMARK                            x       y       z     vdW  Elec       q    Type
REMARK                         _______ _______ _______ _____ _____    ______ ____
ROOT
ATOM      1  C3  T11     1     146.639  95.559 132.497  0.00  0.00    +0.124 A 
ATOM      2  C4  T11     1     146.054  95.777 133.740  0.00  0.00    +0.031 A 
ATOM      3  C5  T11     1     144.891  96.502 133.832  0.00  0.00    +0.007 A 
ATOM      4  C13 T11     1     144.264  97.016 132.715  0.00  0.00    +0.061 A 
ATOM      5  N2  T11     1     144.795  96.808 131.443  0.00  0.00    -0.310 N 
ATOM      6  C19 T11     1     144.072  97.338 130.262  0.00  0.00    +0.152 C 
ATOM      7  C20 T11     1     145.996  96.106 131.253  0.00  0.00    +0.266 A 
ATOM      8  O4  T11     1     146.458  95.970 130.131  0.00  0.00    -0.267 OA
ENDROOT
BRANCH   3   9
ATOM      9  C6  T11     1     144.344  96.718 135.175  0.00  0.00    -0.016 A 
ATOM     10  C7  T11     1     144.729  97.847 135.921  0.00  0.00    +0.012 A 
ATOM     11  C8  T11     1     144.213  98.056 137.210  0.00  0.00    +0.046 A 
ATOM     12  C9  T11     1     143.303  97.143 137.766  0.00  0.00    +0.120 A 
ATOM     13  C11 T11     1     142.907  96.015 137.020  0.00  0.00    +0.046 A 
ATOM     14  C12 T11     1     143.423  95.809 135.729  0.00  0.00    +0.012 A 
BRANCH  12  15
ATOM     15  O3  T11     1     142.830  97.400 139.037  0.00  0.00    -0.495 OA
ATOM     16  C10 T11     1     141.998  96.482 139.769  0.00  0.00    +0.277 C 
ENDBRANCH  12  15
ENDBRANCH   3   9
BRANCH   4  17
ATOM     17  C14 T11     1     143.020  97.771 132.913  0.00  0.00    +0.017 A 
ATOM     18  C15 T11     1     143.048  99.155 133.161  0.00  0.00    +0.013 A 
ATOM     19  C16 T11     1     141.834  99.832 133.352  0.00  0.00    +0.020 A 
ATOM     20  C17 T11     1     140.634  99.103 133.285  0.00  0.00    +0.111 A 
ATOM     21  N1  T11     1     140.599  97.777 133.043  0.00  0.00    -0.263 NA
ATOM     22  C18 T11     1     141.767  97.128 132.860  0.00  0.00    +0.120 A 
ENDBRANCH   4  17
BRANCH   1  23
ATOM     23  C2  T11     1     147.814  94.831 132.493  0.00  0.00    +0.344 C 
ATOM     24  O2  T11     1     148.933  95.344 132.503  0.00  0.00    -0.245 OA
BRANCH  23  26
ATOM     25  C1  T11     1     147.875  92.730 131.250  0.00  0.00    +0.280 C 
ATOM     26  O1  T11     1     147.713  93.463 132.480  0.00  0.00    -0.464 OA
ENDBRANCH  23  26
ENDBRANCH   1  23
TORSDOF 5
ENDMDL
MODEL 4
REMARK VINA RESULT:    -6.581      1.367      1.789
REMARK INTER + INTRA:          -9.283
REMARK INTER:                  -8.529
REMARK INTRA:                  -0.754
REMARK UNBOUND:                -0.779
REMARK  Name = ligands_pdb/TRN_CHEMBL291335.pdb
REMARK  8 active torsions:
REMARK  status: ('A' for Active; 'I' for Inactive)
REMARK    1  A    between atoms: C1_1  and  O1_2
REMARK    2  A    between atoms: O1_2  and  C2_3
REMARK    3  A    between atoms: C2_3  and  C3_5
REMARK    4  A    between atoms: C5_7  and  C6_8
REMARK    5  A    between atoms: C9_11  and  O3_12
REMARK    6  A    between atoms: O3_12  and  C10_13
REMARK    7  A    between atoms: C13_16  and  C14_17
REMARK    8  A    between atoms: N2_23  and  C19_24
REMARK                            x       y       z     vdW  Elec       q    Type
REMARK                         _______ _______ _______ _____ _____    ______ ____
ROOT
ATOM      1  C3  T11     1     140.289 100.646 130.190  0.00  0.00    +0.124 A 
ATOM      2  C4  T11     1     140.873 100.166 131.358  0.00  0.00    +0.031 A 
ATOM      3  C5  T11     1     141.620  99.013 131.326  0.00  0.00    +0.007 A 
ATOM      4  C13 T11     1     141.828  98.313 130.154  0.00  0.00    +0.061 A 
ATOM      5  N2  T11     1     141.285  98.763 128.952  0.00  0.00    -0.310 N 
ATOM      6  C19 T11     1     141.564  98.010 127.706  0.00  0.00    +0.152 C 
ATOM      7  C20 T11     1     140.482  99.914 128.892  0.00  0.00    +0.266 A 
ATOM      8  O4  T11     1     139.988 100.264 127.832  0.00  0.00    -0.267 OA
ENDROOT
BRANCH   3   9
ATOM      9  C6  T11     1     142.183  98.548 132.598  0.00  0.00    -0.016 A 
ATOM     10  C7  T11     1     143.541  98.765 132.889  0.00  0.00    +0.012 A 
ATOM     11  C8  T11     1     144.087  98.317 134.102  0.00  0.00    +0.046 A 
ATOM     12  C9  T11     1     143.281  97.652 135.040  0.00  0.00    +0.120 A 
ATOM     13  C11 T11     1     141.917  97.440 134.757  0.00  0.00    +0.046 A 
ATOM     14  C12 T11     1     141.372  97.891 133.543  0.00  0.00    +0.012 A 
BRANCH  12  15
ATOM     15  O3  T11     1     143.873  97.234 136.215  0.00  0.00    -0.495 OA
ATOM     16  C10 T11     1     143.152  97.086 137.452  0.00  0.00    +0.277 C 
ENDBRANCH  12  15
ENDBRANCH   3   9
BRANCH   4  17
ATOM     17  C14 T11     1     142.648  97.097 130.219  0.00  0.00    +0.017 A 
ATOM     18  C15 T11     1     142.077  95.860 130.568  0.00  0.00    +0.013 A 
ATOM     19  C16 T11     1     142.902  94.726 130.624  0.00  0.00    +0.020 A 
ATOM     20  C17 T11     1     144.269  94.868 130.326  0.00  0.00    +0.111 A 
ATOM     21  N1  T11     1     144.822  96.049 129.986  0.00  0.00    -0.263 NA
ATOM     22  C18 T11     1     144.027  97.138 129.933  0.00  0.00    +0.120 A 
ENDBRANCH   4  17
BRANCH   1  23
ATOM     23  C2  T11     1     139.543 101.804 130.311  0.00  0.00    +0.344 C 
ATOM     24  O2  T11     1     140.035 102.910 130.531  0.00  0.00    -0.245 OA
BRANCH  23  26
ATOM     25  C1  T11     1     137.305 102.559 130.928  0.00  0.00    +0.280 C 
ATOM     26  O1  T11     1     138.182 101.700 130.175  0.00  0.00    -0.464 OA
ENDBRANCH  23  26
ENDBRANCH   1  23
TORSDOF 5
ENDMDL
MODEL 5
REMARK VINA RESULT:    -6.490      2.924      4.510
REMARK INTER + INTRA:          -9.166
REMARK INTER:                  -8.263
REMARK INTRA:                  -0.903
REMARK UNBOUND:                -0.779
REMARK  Name = ligands_pdb/TRN_CHEMBL291335.pdb
REMARK  8 active torsions:
REMARK  status: ('A' for Active; 'I' for Inactive)
REMARK    1  A    between atoms: C1_1  and  O1_2
REMARK    2  A    between atoms: O1_2  and  C2_3
REMARK    3  A    between atoms: C2_3  and  C3_5
REMARK    4  A    between atoms: C5_7  and  C6_8
REMARK    5  A    between atoms: C9_11  and  O3_12
REMARK    6  A    between atoms: O3_12  and  C10_13
REMARK    7  A    between atoms: C13_16  and  C14_17
REMARK    8  A    between atoms: N2_23  and  C19_24
REMARK                            x       y       z     vdW  Elec       q    Type
REMARK                         _______ _______ _______ _____ _____    ______ ____
ROOT
ATOM      1  C3  T11     1     141.724  99.476 129.343  0.00  0.00    +0.124 A 
ATOM      2  C4  T11     1     142.622  98.417 129.424  0.00  0.00    +0.031 A 
ATOM      3  C5  T11     1     142.966  97.902 130.650  0.00  0.00    +0.007 A 
ATOM      4  C13 T11     1     142.430  98.396 131.822  0.00  0.00    +0.061 A 
ATOM      5  N2  T11     1     141.508  99.442 131.797  0.00  0.00    -0.310 N 
ATOM      6  C19 T11     1     140.921  99.919 133.072  0.00  0.00    +0.152 C 
ATOM      7  C20 T11     1     141.120 100.051 130.593  0.00  0.00    +0.266 A 
ATOM      8  O4  T11     1     140.340 100.990 130.604  0.00  0.00    -0.267 OA
ENDROOT
BRANCH   3   9
ATOM      9  C6  T11     1     143.939  96.805 130.664  0.00  0.00    -0.016 A 
ATOM     10  C7  T11     1     143.514  95.483 130.443  0.00  0.00    +0.012 A 
ATOM     11  C8  T11     1     144.440  94.428 130.460  0.00  0.00    +0.046 A 
ATOM     12  C9  T11     1     145.801  94.683 130.694  0.00  0.00    +0.120 A 
ATOM     13  C11 T11     1     146.233  96.007 130.907  0.00  0.00    +0.046 A 
ATOM     14  C12 T11     1     145.305  97.062 130.887  0.00  0.00    +0.012 A 
BRANCH  12  15
ATOM     15  O3  T11     1     146.666  93.606 130.700  0.00  0.00    -0.495 OA
ATOM     16  C10 T11     1     147.646  93.389 131.730  0.00  0.00    +0.277 C 
ENDBRANCH  12  15
ENDBRANCH   3   9
BRANCH   4  17
ATOM     17  C14 T11     1     142.852  97.775 133.084  0.00  0.00    +0.017 A 
ATOM     18  C15 T11     1     143.925  98.304 133.824  0.00  0.00    +0.013 A 
ATOM     19  C16 T11     1     144.298  97.671 135.020  0.00  0.00    +0.020 A 
ATOM     20  C17 T11     1     143.582  96.535 135.437  0.00  0.00    +0.111 A 
ATOM     21  N1  T11     1     142.549  96.026 134.735  0.00  0.00    -0.263 NA
ATOM     22  C18 T11     1     142.194  96.635 133.586  0.00  0.00    +0.120 A 
ENDBRANCH   4  17
BRANCH   1  23
ATOM     23  C2  T11     1     141.441  99.943 128.073  0.00  0.00    +0.344 C 
ATOM     24  O2  T11     1     141.960 100.947 127.586  0.00  0.00    -0.245 OA
BRANCH  23  26
ATOM     25  C1  T11     1     139.119  99.418 127.532  0.00  0.00    +0.280 C 
ATOM     26  O1  T11     1     140.533  99.237 127.325  0.00  0.00    -0.464 OA
ENDBRANCH  23  26
ENDBRANCH   1  23
TORSDOF 5
ENDMDL
MODEL 6
REMARK VINA RESULT:    -6.214      3.145      7.441
REMARK INTER + INTRA:          -8.809
REMARK INTER:                  -8.155
REMARK INTRA:                  -0.654
REMARK UNBOUND:                -0.779
REMARK  Name = ligands_pdb/TRN_CHEMBL291335.pdb
REMARK  8 active torsions:
REMARK  status: ('A' for Active; 'I' for Inactive)
REMARK    1  A    between atoms: C1_1  and  O1_2
REMARK    2  A    between atoms: O1_2  and  C2_3
REMARK    3  A    between atoms: C2_3  and  C3_5
REMARK    4  A    between atoms: C5_7  and  C6_8
REMARK    5  A    between atoms: C9_11  and  O3_12
REMARK    6  A    between atoms: O3_12  and  C10_13
REMARK    7  A    between atoms: C13_16  and  C14_17
REMARK    8  A    between atoms: N2_23  and  C19_24
REMARK                            x       y       z     vdW  Elec       q    Type
REMARK                         _______ _______ _______ _____ _____    ______ ____
ROOT
ATOM      1  C3  T11     1     145.912  96.006 132.293  0.00  0.00    +0.124 A 
ATOM      2  C4  T11     1     144.784  96.194 131.501  0.00  0.00    +0.031 A 
ATOM      3  C5  T11     1     143.705  96.885 131.999  0.00  0.00    +0.007 A 
ATOM      4  C13 T11     1     143.710  97.421 133.272  0.00  0.00    +0.061 A 
ATOM      5  N2  T11     1     144.824  97.280 134.098  0.00  0.00    -0.310 N 
ATOM      6  C19 T11     1     144.809  97.905 135.443  0.00  0.00    +0.152 C 
ATOM      7  C20 T11     1     145.959  96.564 133.687  0.00  0.00    +0.266 A 
ATOM      8  O4  T11     1     146.906  96.425 134.445  0.00  0.00    -0.267 OA
ENDROOT
BRANCH   3   9
ATOM      9  C6  T11     1     142.539  97.023 131.122  0.00  0.00    -0.016 A 
ATOM     10  C7  T11     1     142.559  97.947 130.062  0.00  0.00    +0.012 A 
ATOM     11  C8  T11     1     141.442  98.087 129.222  0.00  0.00    +0.046 A 
ATOM     12  C9  T11     1     140.296  97.302 129.429  0.00  0.00    +0.120 A 
ATOM     13  C11 T11     1     140.275  96.369 130.484  0.00  0.00    +0.046 A 
ATOM     14  C12 T11     1     141.394  96.229 131.322  0.00  0.00    +0.012 A 
BRANCH  12  15
ATOM     15  O3  T11     1     139.229  97.484 128.572  0.00  0.00    -0.495 OA
ATOM     16  C10 T11     1     139.378  97.909 127.206  0.00  0.00    +0.277 C 
ENDBRANCH  12  15
ENDBRANCH   3   9
BRANCH   4  17
ATOM     17  C14 T11     1     142.514  98.150 133.713  0.00  0.00    +0.017 A 
ATOM     18  C15 T11     1     142.195  99.408 133.171  0.00  0.00    +0.013 A 
ATOM     19  C16 T11     1     141.046 100.070 133.630  0.00  0.00    +0.020 A 
ATOM     20  C17 T11     1     140.253  99.449 134.611  0.00  0.00    +0.111 A 
ATOM     21  N1  T11     1     140.549  98.241 135.131  0.00  0.00    -0.263 NA
ATOM     22  C18 T11     1     141.655  97.607 134.689  0.00  0.00    +0.120 A 
ENDBRANCH   4  17
BRANCH   1  23
ATOM     23  C2  T11     1     146.947  95.289 131.721  0.00  0.00    +0.344 C 
ATOM     24  O2  T11     1     146.908  94.074 131.528  0.00  0.00    -0.245 OA
BRANCH  23  26
ATOM     25  C1  T11     1     148.220  96.465 130.001  0.00  0.00    +0.280 C 
ATOM     26  O1  T11     1     148.071  95.983 131.351  0.00  0.00    -0.464 OA
ENDBRANCH  23  26
ENDBRANCH   1  23
TORSDOF 5
ENDMDL
MODEL 7
REMARK VINA RESULT:    -6.182      3.239      6.315
REMARK INTER + INTRA:          -8.768
REMARK INTER:                  -7.905
REMARK INTRA:                  -0.863
REMARK UNBOUND:                -0.779
REMARK  Name = ligands_pdb/TRN_CHEMBL291335.pdb
REMARK  8 active torsions:
REMARK  status: ('A' for Active; 'I' for Inactive)
REMARK    1  A    between atoms: C1_1  and  O1_2
REMARK    2  A    between atoms: O1_2  and  C2_3
REMARK    3  A    between atoms: C2_3  and  C3_5
REMARK    4  A    between atoms: C5_7  and  C6_8
REMARK    5  A    between atoms: C9_11  and  O3_12
REMARK    6  A    between atoms: O3_12  and  C10_13
REMARK    7  A    between atoms: C13_16  and  C14_17
REMARK    8  A    between atoms: N2_23  and  C19_24
REMARK                            x       y       z     vdW  Elec       q    Type
REMARK                         _______ _______ _______ _____ _____    ______ ____
ROOT
ATOM      1  C3  T11     1     143.487  97.259 134.505  0.00  0.00    +0.124 A 
ATOM      2  C4  T11     1     144.303  96.907 133.435  0.00  0.00    +0.031 A 
ATOM      3  C5  T11     1     143.820  96.979 132.151  0.00  0.00    +0.007 A 
ATOM      4  C13 T11     1     142.537  97.413 131.881  0.00  0.00    +0.061 A 
ATOM      5  N2  T11     1     141.684  97.799 132.914  0.00  0.00    -0.310 N 
ATOM      6  C19 T11     1     140.329  98.298 132.584  0.00  0.00    +0.152 C 
ATOM      7  C20 T11     1     142.081  97.729 134.259  0.00  0.00    +0.266 A 
ATOM      8  O4  T11     1     141.301  98.038 135.146  0.00  0.00    -0.267 OA
ENDROOT
BRANCH   3   9
ATOM      9  C6  T11     1     144.724  96.567 131.073  0.00  0.00    -0.016 A 
ATOM     10  C7  T11     1     144.831  95.208 130.724  0.00  0.00    +0.012 A 
ATOM     11  C8  T11     1     145.699  94.806 129.696  0.00  0.00    +0.046 A 
ATOM     12  C9  T11     1     146.465  95.757 129.003  0.00  0.00    +0.120 A 
ATOM     13  C11 T11     1     146.354  97.120 129.343  0.00  0.00    +0.046 A 
ATOM     14  C12 T11     1     145.484  97.520 130.370  0.00  0.00    +0.012 A 
BRANCH  12  15
ATOM     15  O3  T11     1     147.302  95.303 128.003  0.00  0.00    -0.495 OA
ATOM     16  C10 T11     1     148.517  95.975 127.627  0.00  0.00    +0.277 C 
ENDBRANCH  12  15
ENDBRANCH   3   9
BRANCH   4  17
ATOM     17  C14 T11     1     142.112  97.464 130.476  0.00  0.00    +0.017 A 
ATOM     18  C15 T11     1     142.321  98.618 129.701  0.00  0.00    +0.013 A 
ATOM     19  C16 T11     1     141.891  98.622 128.365  0.00  0.00    +0.020 A 
ATOM     20  C17 T11     1     141.271  97.471 127.850  0.00  0.00    +0.111 A 
ATOM     21  N1  T11     1     141.071  96.359 128.585  0.00  0.00    -0.263 NA
ATOM     22  C18 T11     1     141.485  96.357 129.869  0.00  0.00    +0.120 A 
ENDBRANCH   4  17
BRANCH   1  23
ATOM     23  C2  T11     1     144.047  97.145 135.764  0.00  0.00    +0.344 C 
ATOM     24  O2  T11     1     144.833  97.966 136.235  0.00  0.00    -0.245 OA
BRANCH  23  26
ATOM     25  C1  T11     1     143.021  96.226 137.780  0.00  0.00    +0.280 C 
ATOM     26  O1  T11     1     143.696  96.055 136.519  0.00  0.00    -0.464 OA
ENDBRANCH  23  26
ENDBRANCH   1  23
TORSDOF 5
ENDMDL
MODEL 8
REMARK VINA RESULT:    -6.111      3.702      7.644
REMARK INTER + INTRA:          -8.676
REMARK INTER:                  -7.755
REMARK INTRA:                  -0.921
REMARK UNBOUND:                -0.779
REMARK  Name = ligands_pdb/TRN_CHEMBL291335.pdb
REMARK  8 active torsions:
REMARK  status: ('A' for Active; 'I' for Inactive)
REMARK    1  A    between atoms: C1_1  and  O1_2
REMARK    2  A    between atoms: O1_2  and  C2_3
REMARK    3  A    between atoms: C2_3  and  C3_5
REMARK    4  A    between atoms: C5_7  and  C6_8
REMARK    5  A    between atoms: C9_11  and  O3_12
REMARK    6  A    between atoms: O3_12  and  C10_13
REMARK    7  A    between atoms: C13_16  and  C14_17
REMARK    8  A    between atoms: N2_23  and  C19_24
REMARK                            x       y       z     vdW  Elec       q    Type
REMARK                         _______ _______ _______ _____ _____    ______ ____
ROOT
ATOM      1  C3  T11     1     146.389  95.610 131.080  0.00  0.00    +0.124 A 
ATOM      2  C4  T11     1     145.466  96.294 130.296  0.00  0.00    +0.031 A 
ATOM      3  C5  T11     1     144.429  96.971 130.891  0.00  0.00    +0.007 A 
ATOM      4  C13 T11     1     144.279  97.010 132.263  0.00  0.00    +0.061 A 
ATOM      5  N2  T11     1     145.188  96.360 133.097  0.00  0.00    -0.310 N 
ATOM      6  C19 T11     1     145.019  96.459 134.566  0.00  0.00    +0.152 C 
ATOM      7  C20 T11     1     146.261  95.619 132.578  0.00  0.00    +0.266 A 
ATOM      8  O4  T11     1     147.021  95.029 133.330  0.00  0.00    -0.267 OA
ENDROOT
BRANCH   3   9
ATOM      9  C6  T11     1     143.477  97.646 130.004  0.00  0.00    -0.016 A 
ATOM     10  C7  T11     1     143.747  98.945 129.537  0.00  0.00    +0.012 A 
ATOM     11  C8  T11     1     142.837  99.599 128.692  0.00  0.00    +0.046 A 
ATOM     12  C9  T11     1     141.649  98.961 128.300  0.00  0.00    +0.120 A 
ATOM     13  C11 T11     1     141.378  97.657 128.757  0.00  0.00    +0.046 A 
ATOM     14  C12 T11     1     142.291  97.003 129.602  0.00  0.00    +0.012 A 
BRANCH  12  15
ATOM     15  O3  T11     1     140.791  99.654 127.468  0.00  0.00    -0.495 OA
ATOM     16  C10 T11     1     140.255 100.949 127.791  0.00  0.00    +0.277 C 
ENDBRANCH  12  15
ENDBRANCH   3   9
BRANCH   4  17
ATOM     17  C14 T11     1     143.143  97.766 132.807  0.00  0.00    +0.017 A 
ATOM     18  C15 T11     1     143.250  99.145 133.062  0.00  0.00    +0.013 A 
ATOM     19  C16 T11     1     142.140  99.823 133.589  0.00  0.00    +0.020 A 
ATOM     20  C17 T11     1     140.961  99.099 133.839  0.00  0.00    +0.111 A 
ATOM     21  N1  T11     1     140.849  97.779 133.592  0.00  0.00    -0.263 NA
ATOM     22  C18 T11     1     141.917  97.129 133.086  0.00  0.00    +0.120 A 
ENDBRANCH   4  17
BRANCH   1  23
ATOM     23  C2  T11     1     147.394  94.945 130.402  0.00  0.00    +0.344 C 
ATOM     24  O2  T11     1     147.455  93.720 130.308  0.00  0.00    -0.245 OA
BRANCH  23  26
ATOM     25  C1  T11     1     149.303  96.453 130.605  0.00  0.00    +0.280 C 
ATOM     26  O1  T11     1     148.367  95.705 129.805  0.00  0.00    -0.464 OA
ENDBRANCH  23  26
ENDBRANCH   1  23
TORSDOF 5
ENDMDL
MODEL 9
REMARK VINA RESULT:    -6.068      2.235      2.809
REMARK INTER + INTRA:          -8.621
REMARK INTER:                  -7.778
REMARK INTRA:                  -0.843
REMARK UNBOUND:                -0.779
REMARK  Name = ligands_pdb/TRN_CHEMBL291335.pdb
REMARK  8 active torsions:
REMARK  status: ('A' for Active; 'I' for Inactive)
REMARK    1  A    between atoms: C1_1  and  O1_2
REMARK    2  A    between atoms: O1_2  and  C2_3
REMARK    3  A    between atoms: C2_3  and  C3_5
REMARK    4  A    between atoms: C5_7  and  C6_8
REMARK    5  A    between atoms: C9_11  and  O3_12
REMARK    6  A    between atoms: O3_12  and  C10_13
REMARK    7  A    between atoms: C13_16  and  C14_17
REMARK    8  A    between atoms: N2_23  and  C19_24
REMARK                            x       y       z     vdW  Elec       q    Type
REMARK                         _______ _______ _______ _____ _____    ______ ____
ROOT
ATOM      1  C3  T11     1     140.952  99.246 129.613  0.00  0.00    +0.124 A 
ATOM      2  C4  T11     1     141.375  98.940 130.902  0.00  0.00    +0.031 A 
ATOM      3  C5  T11     1     142.437  98.089 131.090  0.00  0.00    +0.007 A 
ATOM      4  C13 T11     1     143.120  97.532 130.026  0.00  0.00    +0.061 A 
ATOM      5  N2  T11     1     142.751  97.824 128.714  0.00  0.00    -0.310 N 
ATOM      6  C19 T11     1     143.533  97.242 127.597  0.00  0.00    +0.152 C 
ATOM      7  C20 T11     1     141.660  98.658 128.425  0.00  0.00    +0.266 A 
ATOM      8  O4  T11     1     141.336  98.867 127.267  0.00  0.00    -0.267 OA
ENDROOT
BRANCH   3   9
ATOM      9  C6  T11     1     142.813  97.786 132.474  0.00  0.00    -0.016 A 
ATOM     10  C7  T11     1     143.690  98.638 133.169  0.00  0.00    +0.012 A 
ATOM     11  C8  T11     1     144.058  98.351 134.493  0.00  0.00    +0.046 A 
ATOM     12  C9  T11     1     143.549  97.212 135.140  0.00  0.00    +0.120 A 
ATOM     13  C11 T11     1     142.663  96.361 134.451  0.00  0.00    +0.046 A 
ATOM     14  C12 T11     1     142.295  96.651 133.126  0.00  0.00    +0.012 A 
BRANCH  12  15
ATOM     15  O3  T11     1     143.947  96.980 136.441  0.00  0.00    -0.495 OA
ATOM     16  C10 T11     1     143.210  96.147 137.354  0.00  0.00    +0.277 C 
ENDBRANCH  12  15
ENDBRANCH   3   9
BRANCH   4  17
ATOM     17  C14 T11     1     144.247  96.641 130.327  0.00  0.00    +0.017 A 
ATOM     18  C15 T11     1     144.065  95.248 130.408  0.00  0.00    +0.013 A 
ATOM     19  C16 T11     1     145.171  94.438 130.705  0.00  0.00    +0.020 A 
ATOM     20  C17 T11     1     146.421  95.047 130.909  0.00  0.00    +0.111 A 
ATOM     21  N1  T11     1     146.605  96.380 130.828  0.00  0.00    -0.263 NA
ATOM     22  C18 T11     1     145.541  97.157 130.543  0.00  0.00    +0.120 A 
ENDBRANCH   4  17
BRANCH   1  23
ATOM     23  C2  T11     1     139.868 100.100 129.512  0.00  0.00    +0.344 C 
ATOM     24  O2  T11     1     138.760  99.748 129.110  0.00  0.00    -0.245 OA
BRANCH  23  26
ATOM     25  C1  T11     1     139.056 102.090 130.671  0.00  0.00    +0.280 C 
ATOM     26  O1  T11     1     140.053 101.407 129.887  0.00  0.00    -0.464 OA
ENDBRANCH  23  26
ENDBRANCH   1  23
TORSDOF 5
ENDMDL
MODEL 10
REMARK VINA RESULT:    -5.983      3.167      6.564
REMARK INTER + INTRA:          -8.511
REMARK INTER:                  -7.657
REMARK INTRA:                  -0.854
REMARK UNBOUND:                -0.779
REMARK  Name = ligands_pdb/TRN_CHEMBL291335.pdb
REMARK  8 active torsions:
REMARK  status: ('A' for Active; 'I' for Inactive)
REMARK    1  A    between atoms: C1_1  and  O1_2
REMARK    2  A    between atoms: O1_2  and  C2_3
REMARK    3  A    between atoms: C2_3  and  C3_5
REMARK    4  A    between atoms: C5_7  and  C6_8
REMARK    5  A    between atoms: C9_11  and  O3_12
REMARK    6  A    between atoms: O3_12  and  C10_13
REMARK    7  A    between atoms: C13_16  and  C14_17
REMARK    8  A    between atoms: N2_23  and  C19_24
REMARK                            x       y       z     vdW  Elec       q    Type
REMARK                         _______ _______ _______ _____ _____    ______ ____
ROOT
ATOM      1  C3  T11     1     142.533  95.809 127.731  0.00  0.00    +0.124 A 
ATOM      2  C4  T11     1     141.842  96.993 127.965  0.00  0.00    +0.031 A 
ATOM      3  C5  T11     1     141.793  97.519 129.234  0.00  0.00    +0.007 A 
ATOM      4  C13 T11     1     142.430  96.910 130.298  0.00  0.00    +0.061 A 
ATOM      5  N2  T11     1     143.154  95.733 130.114  0.00  0.00    -0.310 N 
ATOM      6  C19 T11     1     143.860  95.131 131.270  0.00  0.00    +0.152 C 
ATOM      7  C20 T11     1     143.234  95.108 128.860  0.00  0.00    +0.266 A 
ATOM      8  O4  T11     1     143.845  94.058 128.735  0.00  0.00    -0.267 OA
ENDROOT
BRANCH   3   9
ATOM      9  C6  T11     1     141.025  98.754 129.415  0.00  0.00    -0.016 A 
ATOM     10  C7  T11     1     141.653 100.004 129.266  0.00  0.00    +0.012 A 
ATOM     11  C8  T11     1     140.923 101.190 129.444  0.00  0.00    +0.046 A 
ATOM     12  C9  T11     1     139.558 101.141 129.768  0.00  0.00    +0.120 A 
ATOM     13  C11 T11     1     138.922  99.892 129.910  0.00  0.00    +0.046 A 
ATOM     14  C12 T11     1     139.653  98.706 129.729  0.00  0.00    +0.012 A 
BRANCH  12  15
ATOM     15  O3  T11     1     138.892 102.339 129.932  0.00  0.00    -0.495 OA
ATOM     16  C10 T11     1     137.702 102.478 130.727  0.00  0.00    +0.277 C 
ENDBRANCH  12  15
ENDBRANCH   3   9
BRANCH   4  17
ATOM     17  C14 T11     1     142.327  97.551 131.615  0.00  0.00    +0.017 A 
ATOM     18  C15 T11     1     143.237  98.550 132.004  0.00  0.00    +0.013 A 
ATOM     19  C16 T11     1     143.103  99.127 133.276  0.00  0.00    +0.020 A 
ATOM     20  C17 T11     1     142.062  98.688 134.113  0.00  0.00    +0.111 A 
ATOM     21  N1  T11     1     141.184  97.735 133.745  0.00  0.00    -0.263 NA
ATOM     22  C18 T11     1     141.314  97.181 132.522  0.00  0.00    +0.120 A 
ENDBRANCH   4  17
BRANCH   1  23
ATOM     23  C2  T11     1     142.522  95.343 126.429  0.00  0.00    +0.344 C 
ATOM     24  O2  T11     1     143.234  95.802 125.537  0.00  0.00    -0.245 OA
BRANCH  23  26
ATOM     25  C1  T11     1     141.821  93.569 124.906  0.00  0.00    +0.280 C 
ATOM     26  O1  T11     1     141.669  94.311 126.131  0.00  0.00    -0.464 OA
ENDBRANCH  23  26
ENDBRANCH   1  23
TORSDOF 5
ENDMDL
