MODEL 1
REMARK VINA RESULT:    -8.502      0.000      0.000
REMARK INTER + INTRA:         -11.552
REMARK INTER:                 -10.490
REMARK INTRA:                  -1.062
REMARK UNBOUND:                -1.062
REMARK  Name = ligands_pdb/TRN_CHEMBL361105.pdb
REMARK  4 active torsions:
REMARK  status: ('A' for Active; 'I' for Inactive)
REMARK    1  A    between atoms: C4_4  and  C5_5
REMARK    2  A    between atoms: C5_5  and  O1_6
REMARK    3  A    between atoms: O1_6  and  C6_7
REMARK    4  A    between atoms: C7_10  and  C8_11
REMARK                            x       y       z     vdW  Elec       q    Type
REMARK                         _______ _______ _______ _____ _____    ______ ____
ROOT
ATOM      1  C6  T17     1     141.865  97.321 133.257  0.00  0.00    +0.237 A 
ATOM      2  N1  T17     1     142.126  97.201 134.583  0.00  0.00    -0.125 NA
ATOM      3  N2  T17     1     143.355  96.759 134.953  0.00  0.00    -0.189 N 
ATOM      4  C7  T17     1     143.929  96.492 136.178  0.00  0.00    +0.187 A 
ATOM      5  N4  T17     1     145.153  95.999 135.952  0.00  0.00    -0.127 NA
ATOM      6  N5  T17     1     145.382  95.955 134.706  0.00  0.00    -0.127 NA
ATOM      7  C13 T17     1     144.335  96.398 134.085  0.00  0.00    +0.182 A 
ATOM      8  C14 T17     1     144.096  96.500 132.708  0.00  0.00    +0.010 A 
ATOM      9  C15 T17     1     142.841  96.979 132.292  0.00  0.00    +0.026 A 
ATOM     10  C16 T17     1     142.683  97.047 130.774  0.00  0.00    +0.025 C 
ATOM     11  C17 T17     1     142.930  95.609 130.229  0.00  0.00    +0.009 C 
ATOM     12  C18 T17     1     144.322  95.074 130.701  0.00  0.00    +0.009 C 
ATOM     13  C19 T17     1     145.049  96.138 131.574  0.00  0.00    +0.023 C 
ATOM     14  C20 T17     1     145.221  97.419 130.708  0.00  0.00    +0.009 C 
ATOM     15  C21 T17     1     143.828  97.955 130.239  0.00  0.00    +0.009 C 
ENDROOT
BRANCH   4  16
ATOM     16  C8  T17     1     143.333  96.676 137.506  0.00  0.00    +0.039 A 
ATOM     17  C9  T17     1     143.699  97.775 138.308  0.00  0.00    +0.014 A 
ATOM     18  C10 T17     1     143.106  97.928 139.572  0.00  0.00    +0.020 A 
ATOM     19  C11 T17     1     142.158  96.980 139.993  0.00  0.00    +0.111 A 
ATOM     20  N3  T17     1     141.792  95.931 139.233  0.00  0.00    -0.263 NA
ATOM     21  C12 T17     1     142.366  95.785 138.020  0.00  0.00    +0.122 A 
ENDBRANCH   4  16
BRANCH   1  22
ATOM     22  O1  T17     1     140.638  97.774 132.820  0.00  0.00    -0.469 OA
BRANCH  22  23
ATOM     23  C5  T17     1     140.365  99.179 132.643  0.00  0.00    +0.286 C 
BRANCH  23  27
ATOM     24  C1  T17     1     140.218 100.238 128.497  0.00  0.00    +0.020 A 
ATOM     25  C2  T17     1     139.403  99.180 128.929  0.00  0.00    +0.003 A 
ATOM     26  C3  T17     1     139.438  98.815 130.285  0.00  0.00    +0.027 A 
ATOM     27  C4  T17     1     140.291  99.518 131.160  0.00  0.00    +0.079 A 
ATOM     28  N6  T17     1     141.069 100.540 130.742  0.00  0.00    -0.256 NA
ATOM     29  C22 T17     1     141.033 100.889 129.440  0.00  0.00    +0.111 A 
ENDBRANCH  23  27
ENDBRANCH  22  23
ENDBRANCH   1  22
TORSDOF 4
ENDMDL
MODEL 2
REMARK VINA RESULT:    -8.031      2.277      5.020
REMARK INTER + INTRA:         -10.970
REMARK INTER:                  -9.950
REMARK INTRA:                  -1.020
REMARK UNBOUND:                -1.062
REMARK  Name = ligands_pdb/TRN_CHEMBL361105.pdb
REMARK  4 active torsions:
REMARK  status: ('A' for Active; 'I' for Inactive)
REMARK    1  A    between atoms: C4_4  and  C5_5
REMARK    2  A    between atoms: C5_5  and  O1_6
REMARK    3  A    between atoms: O1_6  and  C6_7
REMARK    4  A    between atoms: C7_10  and  C8_11
REMARK                            x       y       z     vdW  Elec       q    Type
REMARK                         _______ _______ _______ _____ _____    ______ ____
ROOT
ATOM      1  C6  T17     1     144.953  97.140 133.947  0.00  0.00    +0.237 A 
ATOM      2  N1  T17     1     144.355  97.111 135.165  0.00  0.00    -0.125 NA
ATOM      3  N2  T17     1     143.034  97.413 135.233  0.00  0.00    -0.189 N 
ATOM      4  C7  T17     1     142.144  97.514 136.283  0.00  0.00    +0.187 A 
ATOM      5  N4  T17     1     140.972  97.922 135.782  0.00  0.00    -0.127 NA
ATOM      6  N5  T17     1     141.061  98.064 134.525  0.00  0.00    -0.127 NA
ATOM      7  C13 T17     1     142.272  97.771 134.168  0.00  0.00    +0.182 A 
ATOM      8  C14 T17     1     142.859  97.819 132.896  0.00  0.00    +0.010 A 
ATOM      9  C15 T17     1     144.221  97.489 132.788  0.00  0.00    +0.026 A 
ATOM     10  C16 T17     1     144.762  97.578 131.362  0.00  0.00    +0.025 C 
ATOM     11  C17 T17     1     144.511  99.035 130.874  0.00  0.00    +0.009 C 
ATOM     12  C18 T17     1     142.997  99.405 131.004  0.00  0.00    +0.009 C 
ATOM     13  C19 T17     1     142.190  98.206 131.582  0.00  0.00    +0.023 C 
ATOM     14  C20 T17     1     142.377  97.003 130.613  0.00  0.00    +0.009 C 
ATOM     15  C21 T17     1     143.891  96.632 130.486  0.00  0.00    +0.009 C 
ENDROOT
BRANCH   4  16
ATOM     16  C8  T17     1     142.403  97.255 137.704  0.00  0.00    +0.039 A 
ATOM     17  C9  T17     1     141.595  96.354 138.425  0.00  0.00    +0.014 A 
ATOM     18  C10 T17     1     141.872  96.122 139.782  0.00  0.00    +0.020 A 
ATOM     19  C11 T17     1     142.954  96.793 140.376  0.00  0.00    +0.111 A 
ATOM     20  N3  T17     1     143.739  97.649 139.696  0.00  0.00    -0.263 NA
ATOM     21  C12 T17     1     143.469  97.872 138.393  0.00  0.00    +0.122 A 
ENDBRANCH   4  16
BRANCH   1  22
ATOM     22  O1  T17     1     146.291  96.834 133.813  0.00  0.00    -0.469 OA
BRANCH  22  23
ATOM     23  C5  T17     1     146.746  95.478 133.623  0.00  0.00    +0.286 C 
BRANCH  23  27
ATOM     24  C1  T17     1     148.220  95.050 129.627  0.00  0.00    +0.020 A 
ATOM     25  C2  T17     1     147.192  94.187 130.038  0.00  0.00    +0.003 A 
ATOM     26  C3  T17     1     146.696  94.309 131.346  0.00  0.00    +0.027 A 
ATOM     27  C4  T17     1     147.249  95.287 132.198  0.00  0.00    +0.079 A 
ATOM     28  N6  T17     1     148.234  96.120 131.796  0.00  0.00    -0.256 NA
ATOM     29  C22 T17     1     148.708  96.001 130.540  0.00  0.00    +0.111 A 
ENDBRANCH  23  27
ENDBRANCH  22  23
ENDBRANCH   1  22
TORSDOF 4
ENDMDL
MODEL 3
REMARK VINA RESULT:    -8.022      2.723      7.095
REMARK INTER + INTRA:         -10.960
REMARK INTER:                 -10.323
REMARK INTRA:                  -0.637
REMARK UNBOUND:                -1.062
REMARK  Name = ligands_pdb/TRN_CHEMBL361105.pdb
REMARK  4 active torsions:
REMARK  status: ('A' for Active; 'I' for Inactive)
REMARK    1  A    between atoms: C4_4  and  C5_5
REMARK    2  A    between atoms: C5_5  and  O1_6
REMARK    3  A    between atoms: O1_6  and  C6_7
REMARK    4  A    between atoms: C7_10  and  C8_11
REMARK                            x       y       z     vdW  Elec       q    Type
REMARK                         _______ _______ _______ _____ _____    ______ ____
ROOT
ATOM      1  C6  T17     1     144.280  96.868 134.101  0.00  0.00    +0.237 A 
ATOM      2  N1  T17     1     145.207  96.091 133.486  0.00  0.00    -0.125 NA
ATOM      3  N2  T17     1     145.230  96.080 132.129  0.00  0.00    -0.189 N 
ATOM      4  C7  T17     1     145.993  95.396 131.206  0.00  0.00    +0.187 A 
ATOM      5  N4  T17     1     145.534  95.711 129.989  0.00  0.00    -0.127 NA
ATOM      6  N5  T17     1     144.574  96.534 130.084  0.00  0.00    -0.127 NA
ATOM      7  C13 T17     1     144.367  96.772 131.341  0.00  0.00    +0.182 A 
ATOM      8  C14 T17     1     143.391  97.578 131.944  0.00  0.00    +0.010 A 
ATOM      9  C15 T17     1     143.357  97.630 133.348  0.00  0.00    +0.026 A 
ATOM     10  C16 T17     1     142.255  98.531 133.901  0.00  0.00    +0.025 C 
ATOM     11  C17 T17     1     140.906  97.992 133.339  0.00  0.00    +0.009 C 
ATOM     12  C18 T17     1     140.949  97.926 131.777  0.00  0.00    +0.009 C 
ATOM     13  C19 T17     1     142.327  98.419 131.247  0.00  0.00    +0.023 C 
ATOM     14  C20 T17     1     142.522  99.883 131.737  0.00  0.00    +0.009 C 
ATOM     15  C21 T17     1     142.482  99.948 133.299  0.00  0.00    +0.009 C 
ENDROOT
BRANCH   4  16
ATOM     16  C8  T17     1     147.096  94.466 131.470  0.00  0.00    +0.039 A 
ATOM     17  C9  T17     1     147.027  93.130 131.028  0.00  0.00    +0.014 A 
ATOM     18  C10 T17     1     148.102  92.266 131.289  0.00  0.00    +0.020 A 
ATOM     19  C11 T17     1     149.219  92.765 131.980  0.00  0.00    +0.111 A 
ATOM     20  N3  T17     1     149.303  94.042 132.399  0.00  0.00    -0.263 NA
ATOM     21  C12 T17     1     148.267  94.870 132.148  0.00  0.00    +0.122 A 
ENDBRANCH   4  16
BRANCH   1  22
ATOM     22  O1  T17     1     144.214  96.927 135.477  0.00  0.00    -0.469 OA
BRANCH  22  23
ATOM     23  C5  T17     1     143.343  96.063 136.235  0.00  0.00    +0.286 C 
BRANCH  23  27
ATOM     24  C1  T17     1     142.942  97.651 140.191  0.00  0.00    +0.020 A 
ATOM     25  C2  T17     1     142.114  96.575 139.834  0.00  0.00    +0.003 A 
ATOM     26  C3  T17     1     142.228  96.041 138.540  0.00  0.00    +0.027 A 
ATOM     27  C4  T17     1     143.162  96.604 137.647  0.00  0.00    +0.079 A 
ATOM     28  N6  T17     1     143.962  97.636 137.997  0.00  0.00    -0.256 NA
ATOM     29  C22 T17     1     143.852  98.146 139.240  0.00  0.00    +0.111 A 
ENDBRANCH  23  27
ENDBRANCH  22  23
ENDBRANCH   1  22
TORSDOF 4
ENDMDL
MODEL 4
REMARK VINA RESULT:    -7.833      3.763      7.993
REMARK INTER + INTRA:         -10.727
REMARK INTER:                  -9.853
REMARK INTRA:                  -0.873
REMARK UNBOUND:                -1.062
REMARK  Name = ligands_pdb/TRN_CHEMBL361105.pdb
REMARK  4 active torsions:
REMARK  status: ('A' for Active; 'I' for Inactive)
REMARK    1  A    between atoms: C4_4  and  C5_5
REMARK    2  A    between atoms: C5_5  and  O1_6
REMARK    3  A    between atoms: O1_6  and  C6_7
REMARK    4  A    between atoms: C7_10  and  C8_11
REMARK                            x       y       z     vdW  Elec       q    Type
REMARK                         _______ _______ _______ _____ _____    ______ ____
ROOT
ATOM      1  C6  T17     1     140.608  96.455 131.669  0.00  0.00    +0.237 A 
ATOM      2  N1  T17     1     140.143  96.516 130.395  0.00  0.00    -0.125 NA
ATOM      3  N2  T17     1     140.088  97.732 129.795  0.00  0.00    -0.189 N 
ATOM      4  C7  T17     1     139.647  98.151 128.557  0.00  0.00    +0.187 A 
ATOM      5  N4  T17     1     139.753  99.484 128.520  0.00  0.00    -0.127 NA
ATOM      6  N5  T17     1     140.232  99.914 129.612  0.00  0.00    -0.127 NA
ATOM      7  C13 T17     1     140.440  98.899 130.391  0.00  0.00    +0.182 A 
ATOM      8  C14 T17     1     140.917  98.874 131.709  0.00  0.00    +0.010 A 
ATOM      9  C15 T17     1     141.009  97.627 132.351  0.00  0.00    +0.026 A 
ATOM     10  C16 T17     1     141.535  97.712 133.783  0.00  0.00    +0.025 C 
ATOM     11  C17 T17     1     140.575  98.660 134.561  0.00  0.00    +0.009 C 
ATOM     12  C18 T17     1     140.466 100.044 133.840  0.00  0.00    +0.009 C 
ATOM     13  C19 T17     1     141.351 100.064 132.559  0.00  0.00    +0.023 C 
ATOM     14  C20 T17     1     142.818  99.790 132.997  0.00  0.00    +0.009 C 
ATOM     15  C21 T17     1     142.927  98.404 133.715  0.00  0.00    +0.009 C 
ENDROOT
BRANCH   4  16
ATOM     16  C8  T17     1     139.125  97.322 127.464  0.00  0.00    +0.039 A 
ATOM     17  C9  T17     1     137.903  96.637 127.607  0.00  0.00    +0.014 A 
ATOM     18  C10 T17     1     137.427  95.857 126.541  0.00  0.00    +0.020 A 
ATOM     19  C11 T17     1     138.185  95.791 125.359  0.00  0.00    +0.111 A 
ATOM     20  N3  T17     1     139.350  96.448 125.206  0.00  0.00    -0.263 NA
ATOM     21  C12 T17     1     139.806  97.195 126.234  0.00  0.00    +0.122 A 
ENDBRANCH   4  16
BRANCH   1  22
ATOM     22  O1  T17     1     140.696  95.247 132.328  0.00  0.00    -0.469 OA
BRANCH  22  23
ATOM     23  C5  T17     1     141.396  94.120 131.762  0.00  0.00    +0.286 C 
BRANCH  23  27
ATOM     24  C1  T17     1     144.877  95.367 129.606  0.00  0.00    +0.020 A 
ATOM     25  C2  T17     1     144.802  95.697 130.968  0.00  0.00    +0.003 A 
ATOM     26  C3  T17     1     143.666  95.299 131.693  0.00  0.00    +0.027 A 
ATOM     27  C4  T17     1     142.645  94.590 131.029  0.00  0.00    +0.079 A 
ATOM     28  N6  T17     1     142.725  94.268 129.719  0.00  0.00    -0.256 NA
ATOM     29  C22 T17     1     143.816  94.650 129.026  0.00  0.00    +0.111 A 
ENDBRANCH  23  27
ENDBRANCH  22  23
ENDBRANCH   1  22
TORSDOF 4
ENDMDL
MODEL 5
REMARK VINA RESULT:    -7.677      3.576      8.557
REMARK INTER + INTRA:         -10.534
REMARK INTER:                  -9.245
REMARK INTRA:                  -1.289
REMARK UNBOUND:                -1.062
REMARK  Name = ligands_pdb/TRN_CHEMBL361105.pdb
REMARK  4 active torsions:
REMARK  status: ('A' for Active; 'I' for Inactive)
REMARK    1  A    between atoms: C4_4  and  C5_5
REMARK    2  A    between atoms: C5_5  and  O1_6
REMARK    3  A    between atoms: O1_6  and  C6_7
REMARK    4  A    between atoms: C7_10  and  C8_11
REMARK                            x       y       z     vdW  Elec       q    Type
REMARK                         _______ _______ _______ _____ _____    ______ ____
ROOT
ATOM      1  C6  T17     1     140.445  96.712 130.496  0.00  0.00    +0.237 A 
ATOM      2  N1  T17     1     140.149  96.293 129.239  0.00  0.00    -0.125 NA
ATOM      3  N2  T17     1     140.299  97.178 128.221  0.00  0.00    -0.189 N 
ATOM      4  C7  T17     1     140.061  97.101 126.865  0.00  0.00    +0.187 A 
ATOM      5  N4  T17     1     140.313  98.307 126.341  0.00  0.00    -0.127 NA
ATOM      6  N5  T17     1     140.696  99.105 127.248  0.00  0.00    -0.127 NA
ATOM      7  C13 T17     1     140.697  98.467 128.376  0.00  0.00    +0.182 A 
ATOM      8  C14 T17     1     141.002  98.935 129.661  0.00  0.00    +0.010 A 
ATOM      9  C15 T17     1     140.880  98.036 130.735  0.00  0.00    +0.026 A 
ATOM     10  C16 T17     1     141.231  98.648 132.090  0.00  0.00    +0.025 C 
ATOM     11  C17 T17     1     140.289  99.872 132.290  0.00  0.00    +0.009 C 
ATOM     12  C18 T17     1     140.418 100.867 131.090  0.00  0.00    +0.009 C 
ATOM     13  C19 T17     1     141.451 100.339 130.052  0.00  0.00    +0.023 C 
ATOM     14  C20 T17     1     142.816 100.185 130.783  0.00  0.00    +0.009 C 
ATOM     15  C21 T17     1     142.687  99.188 131.981  0.00  0.00    +0.009 C 
ENDROOT
BRANCH   4  16
ATOM     16  C8  T17     1     139.593  95.938 126.102  0.00  0.00    +0.039 A 
ATOM     17  C9  T17     1     138.218  95.745 125.863  0.00  0.00    +0.014 A 
ATOM     18  C10 T17     1     137.803  94.626 125.124  0.00  0.00    +0.020 A 
ATOM     19  C11 T17     1     138.776  93.735 124.639  0.00  0.00    +0.111 A 
ATOM     20  N3  T17     1     140.093  93.913 124.852  0.00  0.00    -0.263 NA
ATOM     21  C12 T17     1     140.489  94.988 125.565  0.00  0.00    +0.122 A 
ENDBRANCH   4  16
BRANCH   1  22
ATOM     22  O1  T17     1     140.321  95.856 131.570  0.00  0.00    -0.469 OA
BRANCH  22  23
ATOM     23  C5  T17     1     141.316  94.853 131.862  0.00  0.00    +0.286 C 
BRANCH  23  27
ATOM     24  C1  T17     1     144.443  96.602 134.206  0.00  0.00    +0.020 A 
ATOM     25  C2  T17     1     144.740  96.256 132.878  0.00  0.00    +0.003 A 
ATOM     26  C3  T17     1     143.728  95.679 132.093  0.00  0.00    +0.027 A 
ATOM     27  C4  T17     1     142.458  95.463 132.664  0.00  0.00    +0.079 A 
ATOM     28  N6  T17     1     142.174  95.804 133.941  0.00  0.00    -0.256 NA
ATOM     29  C22 T17     1     143.146  96.358 134.692  0.00  0.00    +0.111 A 
ENDBRANCH  23  27
ENDBRANCH  22  23
ENDBRANCH   1  22
TORSDOF 4
ENDMDL
MODEL 6
REMARK VINA RESULT:    -7.562      2.503      6.669
REMARK INTER + INTRA:         -10.392
REMARK INTER:                  -9.624
REMARK INTRA:                  -0.768
REMARK UNBOUND:                -1.062
REMARK  Name = ligands_pdb/TRN_CHEMBL361105.pdb
REMARK  4 active torsions:
REMARK  status: ('A' for Active; 'I' for Inactive)
REMARK    1  A    between atoms: C4_4  and  C5_5
REMARK    2  A    between atoms: C5_5  and  O1_6
REMARK    3  A    between atoms: O1_6  and  C6_7
REMARK    4  A    between atoms: C7_10  and  C8_11
REMARK                            x       y       z     vdW  Elec       q    Type
REMARK                         _______ _______ _______ _____ _____    ______ ____
ROOT
ATOM      1  C6  T17     1     141.645  97.172 131.579  0.00  0.00    +0.237 A 
ATOM      2  N1  T17     1     142.950  96.855 131.382  0.00  0.00    -0.125 NA
ATOM      3  N2  T17     1     143.432  96.906 130.114  0.00  0.00    -0.189 N 
ATOM      4  C7  T17     1     144.665  96.620 129.565  0.00  0.00    +0.187 A 
ATOM      5  N4  T17     1     144.561  96.770 128.239  0.00  0.00    -0.127 NA
ATOM      6  N5  T17     1     143.387  97.136 127.932  0.00  0.00    -0.127 NA
ATOM      7  C13 T17     1     142.691  97.223 129.022  0.00  0.00    +0.182 A 
ATOM      8  C14 T17     1     141.338  97.547 129.189  0.00  0.00    +0.010 A 
ATOM      9  C15 T17     1     140.813  97.528 130.493  0.00  0.00    +0.026 A 
ATOM     10  C16 T17     1     139.331  97.891 130.562  0.00  0.00    +0.025 C 
ATOM     11  C17 T17     1     138.575  96.879 129.651  0.00  0.00    +0.009 C 
ATOM     12  C18 T17     1     139.166  96.894 128.204  0.00  0.00    +0.009 C 
ATOM     13  C19 T17     1     140.334  97.918 128.102  0.00  0.00    +0.023 C 
ATOM     14  C20 T17     1     139.767  99.318 128.475  0.00  0.00    +0.009 C 
ATOM     15  C21 T17     1     139.178  99.302 129.924  0.00  0.00    +0.009 C 
ENDROOT
BRANCH   4  16
ATOM     16  C8  T17     1     145.883  96.200 130.267  0.00  0.00    +0.039 A 
ATOM     17  C9  T17     1     145.853  95.115 131.165  0.00  0.00    +0.014 A 
ATOM     18  C10 T17     1     147.037  94.733 131.817  0.00  0.00    +0.020 A 
ATOM     19  C11 T17     1     148.218  95.444 131.545  0.00  0.00    +0.111 A 
ATOM     20  N3  T17     1     148.263  96.476 130.681  0.00  0.00    -0.263 NA
ATOM     21  C12 T17     1     147.123  96.842 130.059  0.00  0.00    +0.122 A 
ENDBRANCH   4  16
BRANCH   1  22
ATOM     22  O1  T17     1     141.100  97.147 132.845  0.00  0.00    -0.469 OA
BRANCH  22  23
ATOM     23  C5  T17     1     141.286  98.234 133.775  0.00  0.00    +0.286 C 
BRANCH  23  27
ATOM     24  C1  T17     1     143.645  96.992 137.125  0.00  0.00    +0.020 A 
ATOM     25  C2  T17     1     144.316  97.270 135.923  0.00  0.00    +0.003 A 
ATOM     26  C3  T17     1     143.560  97.676 134.811  0.00  0.00    +0.027 A 
ATOM     27  C4  T17     1     142.160  97.786 134.939  0.00  0.00    +0.079 A 
ATOM     28  N6  T17     1     141.520  97.525 136.100  0.00  0.00    -0.256 NA
ATOM     29  C22 T17     1     142.247  97.136 137.166  0.00  0.00    +0.111 A 
ENDBRANCH  23  27
ENDBRANCH  22  23
ENDBRANCH   1  22
TORSDOF 4
ENDMDL
MODEL 7
REMARK VINA RESULT:    -7.368      1.955      4.739
REMARK INTER + INTRA:         -10.153
REMARK INTER:                  -8.973
REMARK INTRA:                  -1.179
REMARK UNBOUND:                -1.062
REMARK  Name = ligands_pdb/TRN_CHEMBL361105.pdb
REMARK  4 active torsions:
REMARK  status: ('A' for Active; 'I' for Inactive)
REMARK    1  A    between atoms: C4_4  and  C5_5
REMARK    2  A    between atoms: C5_5  and  O1_6
REMARK    3  A    between atoms: O1_6  and  C6_7
REMARK    4  A    between atoms: C7_10  and  C8_11
REMARK                            x       y       z     vdW  Elec       q    Type
REMARK                         _______ _______ _______ _____ _____    ______ ____
ROOT
ATOM      1  C6  T17     1     141.618  96.409 130.852  0.00  0.00    +0.237 A 
ATOM      2  N1  T17     1     141.902  96.558 132.171  0.00  0.00    -0.125 NA
ATOM      3  N2  T17     1     141.711  97.780 132.730  0.00  0.00    -0.189 N 
ATOM      4  C7  T17     1     141.927  98.280 133.997  0.00  0.00    +0.187 A 
ATOM      5  N4  T17     1     141.635  99.586 133.972  0.00  0.00    -0.127 NA
ATOM      6  N5  T17     1     141.247  99.924 132.813  0.00  0.00    -0.127 NA
ATOM      7  C13 T17     1     141.283  98.876 132.052  0.00  0.00    +0.182 A 
ATOM      8  C14 T17     1     140.988  98.760 130.687  0.00  0.00    +0.010 A 
ATOM      9  C15 T17     1     141.152  97.501 130.083  0.00  0.00    +0.026 A 
ATOM     10  C16 T17     1     140.809  97.485 128.595  0.00  0.00    +0.025 C 
ATOM     11  C17 T17     1     141.723  98.544 127.910  0.00  0.00    +0.009 C 
ATOM     12  C18 T17     1     141.547  99.942 128.588  0.00  0.00    +0.009 C 
ATOM     13  C19 T17     1     140.510  99.861 129.746  0.00  0.00    +0.023 C 
ATOM     14  C20 T17     1     139.163  99.376 129.138  0.00  0.00    +0.009 C 
ATOM     15  C21 T17     1     139.338  97.976 128.462  0.00  0.00    +0.009 C 
ENDROOT
BRANCH   4  16
ATOM     16  C8  T17     1     142.411  97.553 135.176  0.00  0.00    +0.039 A 
ATOM     17  C9  T17     1     141.698  97.602 136.390  0.00  0.00    +0.014 A 
ATOM     18  C10 T17     1     142.183  96.890 137.498  0.00  0.00    +0.020 A 
ATOM     19  C11 T17     1     143.365  96.143 137.358  0.00  0.00    +0.111 A 
ATOM     20  N3  T17     1     144.051  96.079 136.202  0.00  0.00    -0.263 NA
ATOM     21  C12 T17     1     143.583  96.767 135.138  0.00  0.00    +0.122 A 
ENDBRANCH   4  16
BRANCH   1  22
ATOM     22  O1  T17     1     141.782  95.189 130.231  0.00  0.00    -0.469 OA
BRANCH  22  23
ATOM     23  C5  T17     1     143.050  94.501 130.230  0.00  0.00    +0.286 C 
BRANCH  23  27
ATOM     24  C1  T17     1     146.174  97.121 128.927  0.00  0.00    +0.020 A 
ATOM     25  C2  T17     1     145.230  96.708 127.973  0.00  0.00    +0.003 A 
ATOM     26  C3  T17     1     144.198  95.847 128.380  0.00  0.00    +0.027 A 
ATOM     27  C4  T17     1     144.150  95.425 129.724  0.00  0.00    +0.079 A 
ATOM     28  N6  T17     1     145.056  95.830 130.640  0.00  0.00    -0.256 NA
ATOM     29  C22 T17     1     146.045  96.658 130.248  0.00  0.00    +0.111 A 
ENDBRANCH  23  27
ENDBRANCH  22  23
ENDBRANCH   1  22
TORSDOF 4
ENDMDL
MODEL 8
REMARK VINA RESULT:    -7.332      3.024      6.205
REMARK INTER + INTRA:         -10.108
REMARK INTER:                  -8.775
REMARK INTRA:                  -1.333
REMARK UNBOUND:                -1.062
REMARK  Name = ligands_pdb/TRN_CHEMBL361105.pdb
REMARK  4 active torsions:
REMARK  status: ('A' for Active; 'I' for Inactive)
REMARK    1  A    between atoms: C4_4  and  C5_5
REMARK    2  A    between atoms: C5_5  and  O1_6
REMARK    3  A    between atoms: O1_6  and  C6_7
REMARK    4  A    between atoms: C7_10  and  C8_11
REMARK                            x       y       z     vdW  Elec       q    Type
REMARK                         _______ _______ _______ _____ _____    ______ ____
ROOT
ATOM      1  C6  T17     1     140.827  96.577 131.193  0.00  0.00    +0.237 A 
ATOM      2  N1  T17     1     141.480  95.616 130.492  0.00  0.00    -0.125 NA
ATOM      3  N2  T17     1     142.793  95.408 130.767  0.00  0.00    -0.189 N 
ATOM      4  C7  T17     1     143.743  94.562 130.235  0.00  0.00    +0.187 A 
ATOM      5  N4  T17     1     144.908  94.833 130.836  0.00  0.00    -0.127 NA
ATOM      6  N5  T17     1     144.751  95.753 131.695  0.00  0.00    -0.127 NA
ATOM      7  C13 T17     1     143.508  96.117 131.677  0.00  0.00    +0.182 A 
ATOM      8  C14 T17     1     142.867  97.123 132.413  0.00  0.00    +0.010 A 
ATOM      9  C15 T17     1     141.501  97.347 132.169  0.00  0.00    +0.026 A 
ATOM     10  C16 T17     1     140.902  98.466 133.019  0.00  0.00    +0.025 C 
ATOM     11  C17 T17     1     141.729  99.751 132.722  0.00  0.00    +0.009 C 
ATOM     12  C18 T17     1     143.250  99.498 132.984  0.00  0.00    +0.009 C 
ATOM     13  C19 T17     1     143.485  98.037 133.466  0.00  0.00    +0.023 C 
ATOM     14  C20 T17     1     142.665  97.834 134.772  0.00  0.00    +0.009 C 
ATOM     15  C21 T17     1     141.144  98.084 134.508  0.00  0.00    +0.009 C 
ENDROOT
BRANCH   4  16
ATOM     16  C8  T17     1     143.558  93.555 129.184  0.00  0.00    +0.039 A 
ATOM     17  C9  T17     1     143.278  92.216 129.518  0.00  0.00    +0.014 A 
ATOM     18  C10 T17     1     143.099  91.276 128.490  0.00  0.00    +0.020 A 
ATOM     19  C11 T17     1     143.199  91.706 127.156  0.00  0.00    +0.111 A 
ATOM     20  N3  T17     1     143.457  92.985 126.822  0.00  0.00    -0.263 NA
ATOM     21  C12 T17     1     143.631  93.885 127.813  0.00  0.00    +0.122 A 
ENDBRANCH   4  16
BRANCH   1  22
ATOM     22  O1  T17     1     139.490  96.828 130.965  0.00  0.00    -0.469 OA
BRANCH  22  23
ATOM     23  C5  T17     1     139.014  97.319 129.695  0.00  0.00    +0.286 C 
BRANCH  23  27
ATOM     24  C1  T17     1     140.896 101.046 128.749  0.00  0.00    +0.020 A 
ATOM     25  C2  T17     1     139.861 101.061 129.698  0.00  0.00    +0.003 A 
ATOM     26  C3  T17     1     139.229  99.849 130.021  0.00  0.00    +0.027 A 
ATOM     27  C4  T17     1     139.651  98.666 129.380  0.00  0.00    +0.079 A 
ATOM     28  N6  T17     1     140.651  98.655 128.472  0.00  0.00    -0.256 NA
ATOM     29  C22 T17     1     141.257  99.820 128.165  0.00  0.00    +0.111 A 
ENDBRANCH  23  27
ENDBRANCH  22  23
ENDBRANCH   1  22
TORSDOF 4
ENDMDL
MODEL 9
REMARK VINA RESULT:    -7.264      3.013      5.600
REMARK INTER + INTRA:         -10.024
REMARK INTER:                  -8.873
REMARK INTRA:                  -1.151
REMARK UNBOUND:                -1.062
REMARK  Name = ligands_pdb/TRN_CHEMBL361105.pdb
REMARK  4 active torsions:
REMARK  status: ('A' for Active; 'I' for Inactive)
REMARK    1  A    between atoms: C4_4  and  C5_5
REMARK    2  A    between atoms: C5_5  and  O1_6
REMARK    3  A    between atoms: O1_6  and  C6_7
REMARK    4  A    between atoms: C7_10  and  C8_11
REMARK                            x       y       z     vdW  Elec       q    Type
REMARK                         _______ _______ _______ _____ _____    ______ ____
ROOT
ATOM      1  C6  T17     1     143.489  96.534 130.693  0.00  0.00    +0.237 A 
ATOM      2  N1  T17     1     144.656  95.854 130.830  0.00  0.00    -0.125 NA
ATOM      3  N2  T17     1     145.364  96.028 131.974  0.00  0.00    -0.189 N 
ATOM      4  C7  T17     1     146.575  95.536 132.416  0.00  0.00    +0.187 A 
ATOM      5  N4  T17     1     146.833  96.102 133.601  0.00  0.00    -0.127 NA
ATOM      6  N5  T17     1     145.888  96.880 133.928  0.00  0.00    -0.127 NA
ATOM      7  C13 T17     1     145.001  96.860 132.983  0.00  0.00    +0.182 A 
ATOM      8  C14 T17     1     143.806  97.584 132.871  0.00  0.00    +0.010 A 
ATOM      9  C15 T17     1     143.036  97.408 131.708  0.00  0.00    +0.026 A 
ATOM     10  C16 T17     1     141.759  98.246 131.685  0.00  0.00    +0.025 C 
ATOM     11  C17 T17     1     142.192  99.734 131.836  0.00  0.00    +0.009 C 
ATOM     12  C18 T17     1     143.057  99.927 133.125  0.00  0.00    +0.009 C 
ATOM     13  C19 T17     1     143.226  98.575 133.876  0.00  0.00    +0.023 C 
ATOM     14  C20 T17     1     141.805  98.059 134.243  0.00  0.00    +0.009 C 
ATOM     15  C21 T17     1     140.942  97.863 132.953  0.00  0.00    +0.009 C 
ENDROOT
BRANCH   4  16
ATOM     16  C8  T17     1     147.458  94.585 131.732  0.00  0.00    +0.039 A 
ATOM     17  C9  T17     1     147.603  93.269 132.214  0.00  0.00    +0.014 A 
ATOM     18  C10 T17     1     148.450  92.380 131.533  0.00  0.00    +0.020 A 
ATOM     19  C11 T17     1     149.124  92.832 130.385  0.00  0.00    +0.111 A 
ATOM     20  N3  T17     1     148.987  94.084 129.909  0.00  0.00    -0.263 NA
ATOM     21  C12 T17     1     148.173  94.936 130.566  0.00  0.00    +0.122 A 
ENDBRANCH   4  16
BRANCH   1  22
ATOM     22  O1  T17     1     142.722  96.391 129.557  0.00  0.00    -0.469 OA
BRANCH  22  23
ATOM     23  C5  T17     1     142.974  97.165 128.366  0.00  0.00    +0.286 C 
BRANCH  23  27
ATOM     24  C1  T17     1     140.256 100.461 128.095  0.00  0.00    +0.020 A 
ATOM     25  C2  T17     1     139.710  99.169 128.137  0.00  0.00    +0.003 A 
ATOM     26  C3  T17     1     140.584  98.073 128.223  0.00  0.00    +0.027 A 
ATOM     27  C4  T17     1     141.974  98.309 128.260  0.00  0.00    +0.079 A 
ATOM     28  N6  T17     1     142.495  99.555 128.226  0.00  0.00    -0.256 NA
ATOM     29  C22 T17     1     141.654 100.605 128.144  0.00  0.00    +0.111 A 
ENDBRANCH  23  27
ENDBRANCH  22  23
ENDBRANCH   1  22
TORSDOF 4
ENDMDL
