MODEL 1
REMARK VINA RESULT:    -9.381      0.000      0.000
REMARK INTER + INTRA:         -12.713
REMARK INTER:                 -11.575
REMARK INTRA:                  -1.138
REMARK UNBOUND:                -1.138
REMARK  Name = ligands_pdb/TRN_CHEMBL360733.pdb
REMARK  5 active torsions:
REMARK  status: ('A' for Active; 'I' for Inactive)
REMARK    1  A    between atoms: C1_1  and  C2_2
REMARK    2  A    between atoms: C5_6  and  C6_7
REMARK    3  A    between atoms: C6_7  and  O1_8
REMARK    4  A    between atoms: O1_8  and  C7_9
REMARK    5  A    between atoms: C8_12  and  C9_13
REMARK                            x       y       z     vdW  Elec       q    Type
REMARK                         _______ _______ _______ _____ _____    ______ ____
ROOT
ATOM      1  C7  T15     1     141.867  97.303 133.225  0.00  0.00    +0.237 A 
ATOM      2  N2  T15     1     142.105  97.210 134.558  0.00  0.00    -0.125 NA
ATOM      3  N3  T15     1     143.334  96.796 134.957  0.00  0.00    -0.189 N 
ATOM      4  C8  T15     1     143.891  96.563 136.197  0.00  0.00    +0.185 A 
ATOM      5  N4  T15     1     145.127  96.084 136.002  0.00  0.00    -0.127 NA
ATOM      6  N5  T15     1     145.379  96.024 134.762  0.00  0.00    -0.127 NA
ATOM      7  C15 T15     1     144.336  96.436 134.114  0.00  0.00    +0.182 A 
ATOM      8  C16 T15     1     144.121  96.512 132.731  0.00  0.00    +0.010 A 
ATOM      9  C17 T15     1     142.867  96.962 132.284  0.00  0.00    +0.026 A 
ATOM     10  C18 T15     1     142.737  97.001 130.762  0.00  0.00    +0.025 C 
ATOM     11  C19 T15     1     143.019  95.560 130.246  0.00  0.00    +0.009 C 
ATOM     12  C20 T15     1     144.411  95.057 130.753  0.00  0.00    +0.009 C 
ATOM     13  C21 T15     1     145.101  96.148 131.620  0.00  0.00    +0.023 C 
ATOM     14  C22 T15     1     145.268  97.419 130.737  0.00  0.00    +0.009 C 
ATOM     15  C23 T15     1     143.875  97.921 130.233  0.00  0.00    +0.009 C 
ENDROOT
BRANCH   4  16
ATOM     16  C9  T15     1     143.267  96.762 137.510  0.00  0.00    +0.021 A 
ATOM     17  C10 T15     1     142.312  95.837 137.983  0.00  0.00    +0.011 A 
ATOM     18  C11 T15     1     141.710  96.009 139.240  0.00  0.00    +0.001 A 
ATOM     19  C12 T15     1     142.060  97.105 140.044  0.00  0.00    +0.000 A 
ATOM     20  C13 T15     1     143.017  98.026 139.589  0.00  0.00    +0.001 A 
ATOM     21  C14 T15     1     143.618  97.855 138.331  0.00  0.00    +0.011 A 
ENDBRANCH   4  16
BRANCH   1  22
ATOM     22  O1  T15     1     140.643  97.728 132.757  0.00  0.00    -0.469 OA
BRANCH  22  23
ATOM     23  C6  T15     1     140.337  99.127 132.584  0.00  0.00    +0.286 C 
BRANCH  23  29
ATOM     24  C1  T15     1     138.792  98.346 127.779  0.00  0.00    +0.044 C 
ATOM     25  C2  T15     1     139.586  99.120 128.819  0.00  0.00    -0.047 A 
ATOM     26  C3  T15     1     140.373 100.224 128.450  0.00  0.00    +0.023 A 
ATOM     27  C4  T15     1     141.095 100.907 129.442  0.00  0.00    +0.111 A 
ATOM     28  N1  T15     1     141.074 100.547 130.741  0.00  0.00    -0.256 NA
ATOM     29  C5  T15     1     140.326  99.482 131.104  0.00  0.00    +0.079 A 
ATOM     30  C24 T15     1     139.564  98.747 130.174  0.00  0.00    +0.030 A 
ENDBRANCH  23  29
ENDBRANCH  22  23
ENDBRANCH   1  22
TORSDOF 4
ENDMDL
MODEL 2
REMARK VINA RESULT:    -9.115      0.814      1.233
REMARK INTER + INTRA:         -12.384
REMARK INTER:                 -11.436
REMARK INTRA:                  -0.949
REMARK UNBOUND:                -1.138
REMARK  Name = ligands_pdb/TRN_CHEMBL360733.pdb
REMARK  5 active torsions:
REMARK  status: ('A' for Active; 'I' for Inactive)
REMARK    1  A    between atoms: C1_1  and  C2_2
REMARK    2  A    between atoms: C5_6  and  C6_7
REMARK    3  A    between atoms: C6_7  and  O1_8
REMARK    4  A    between atoms: O1_8  and  C7_9
REMARK    5  A    between atoms: C8_12  and  C9_13
REMARK                            x       y       z     vdW  Elec       q    Type
REMARK                         _______ _______ _______ _____ _____    ______ ____
ROOT
ATOM      1  C7  T15     1     141.916  96.983 133.189  0.00  0.00    +0.237 A 
ATOM      2  N2  T15     1     142.164  96.941 134.523  0.00  0.00    -0.125 NA
ATOM      3  N3  T15     1     143.429  96.660 134.926  0.00  0.00    -0.189 N 
ATOM      4  C8  T15     1     144.007  96.509 136.169  0.00  0.00    +0.185 A 
ATOM      5  N4  T15     1     145.285  96.153 135.980  0.00  0.00    -0.127 NA
ATOM      6  N5  T15     1     145.541  96.094 134.740  0.00  0.00    -0.127 NA
ATOM      7  C15 T15     1     144.460  96.386 134.087  0.00  0.00    +0.182 A 
ATOM      8  C16 T15     1     144.238  96.413 132.704  0.00  0.00    +0.010 A 
ATOM      9  C17 T15     1     142.944  96.725 132.252  0.00  0.00    +0.026 A 
ATOM     10  C18 T15     1     142.808  96.720 130.730  0.00  0.00    +0.025 C 
ATOM     11  C19 T15     1     143.233  95.305 130.242  0.00  0.00    +0.009 C 
ATOM     12  C20 T15     1     144.669  94.955 130.754  0.00  0.00    +0.009 C 
ATOM     13  C21 T15     1     145.248  96.127 131.597  0.00  0.00    +0.023 C 
ATOM     14  C22 T15     1     145.285  97.390 130.688  0.00  0.00    +0.009 C 
ATOM     15  C23 T15     1     143.848  97.740 130.179  0.00  0.00    +0.009 C 
ENDROOT
BRANCH   4  16
ATOM     16  C9  T15     1     143.368  96.671 137.480  0.00  0.00    +0.021 A 
ATOM     17  C10 T15     1     142.436  95.713 137.931  0.00  0.00    +0.011 A 
ATOM     18  C11 T15     1     141.820  95.849 139.186  0.00  0.00    +0.001 A 
ATOM     19  C12 T15     1     142.133  96.941 140.009  0.00  0.00    +0.000 A 
ATOM     20  C13 T15     1     143.067  97.895 139.575  0.00  0.00    +0.001 A 
ATOM     21  C14 T15     1     143.682  97.760 138.320  0.00  0.00    +0.011 A 
ENDBRANCH   4  16
BRANCH   1  22
ATOM     22  O1  T15     1     140.655  97.274 132.717  0.00  0.00    -0.469 OA
BRANCH  22  23
ATOM     23  C6  T15     1     140.280  98.607 132.315  0.00  0.00    +0.286 C 
BRANCH  23  29
ATOM     24  C1  T15     1     140.237 100.847 127.724  0.00  0.00    +0.044 C 
ATOM     25  C2  T15     1     139.912  99.684 128.647  0.00  0.00    -0.047 A 
ATOM     26  C3  T15     1     139.246  98.545 128.164  0.00  0.00    +0.023 A 
ATOM     27  C4  T15     1     138.960  97.495 129.053  0.00  0.00    +0.111 A 
ATOM     28  N1  T15     1     139.292  97.532 130.359  0.00  0.00    -0.256 NA
ATOM     29  C5  T15     1     139.925  98.626 130.834  0.00  0.00    +0.079 A 
ATOM     30  C24 T15     1     140.259  99.719 130.010  0.00  0.00    +0.030 A 
ENDBRANCH  23  29
ENDBRANCH  22  23
ENDBRANCH   1  22
TORSDOF 4
ENDMDL
MODEL 3
REMARK VINA RESULT:    -8.687      2.345      5.226
REMARK INTER + INTRA:         -11.856
REMARK INTER:                 -10.834
REMARK INTRA:                  -1.023
REMARK UNBOUND:                -1.138
REMARK  Name = ligands_pdb/TRN_CHEMBL360733.pdb
REMARK  5 active torsions:
REMARK  status: ('A' for Active; 'I' for Inactive)
REMARK    1  A    between atoms: C1_1  and  C2_2
REMARK    2  A    between atoms: C5_6  and  C6_7
REMARK    3  A    between atoms: C6_7  and  O1_8
REMARK    4  A    between atoms: O1_8  and  C7_9
REMARK    5  A    between atoms: C8_12  and  C9_13
REMARK                            x       y       z     vdW  Elec       q    Type
REMARK                         _______ _______ _______ _____ _____    ______ ____
ROOT
ATOM      1  C7  T15     1     144.987  97.109 133.971  0.00  0.00    +0.237 A 
ATOM      2  N2  T15     1     144.410  97.124 135.199  0.00  0.00    -0.125 NA
ATOM      3  N3  T15     1     143.078  97.376 135.273  0.00  0.00    -0.189 N 
ATOM      4  C8  T15     1     142.202  97.497 136.331  0.00  0.00    +0.185 A 
ATOM      5  N4  T15     1     141.006  97.833 135.829  0.00  0.00    -0.127 NA
ATOM      6  N5  T15     1     141.070  97.909 134.566  0.00  0.00    -0.127 NA
ATOM      7  C15 T15     1     142.286  97.647 134.204  0.00  0.00    +0.182 A 
ATOM      8  C16 T15     1     142.851  97.647 132.921  0.00  0.00    +0.010 A 
ATOM      9  C17 T15     1     144.223  97.365 132.807  0.00  0.00    +0.026 A 
ATOM     10  C18 T15     1     144.739  97.398 131.369  0.00  0.00    +0.025 C 
ATOM     11  C19 T15     1     144.421  98.813 130.807  0.00  0.00    +0.009 C 
ATOM     12  C20 T15     1     142.895  99.130 130.943  0.00  0.00    +0.009 C 
ATOM     13  C21 T15     1     142.147  97.934 131.599  0.00  0.00    +0.023 C 
ATOM     14  C22 T15     1     142.367  96.685 130.695  0.00  0.00    +0.009 C 
ATOM     15  C23 T15     1     143.893  96.369 130.562  0.00  0.00    +0.009 C 
ENDROOT
BRANCH   4  16
ATOM     16  C9  T15     1     142.493  97.325 137.759  0.00  0.00    +0.021 A 
ATOM     17  C10 T15     1     143.630  97.939 138.324  0.00  0.00    +0.011 A 
ATOM     18  C11 T15     1     143.919  97.790 139.690  0.00  0.00    +0.001 A 
ATOM     19  C12 T15     1     143.072  97.029 140.511  0.00  0.00    +0.000 A 
ATOM     20  C13 T15     1     141.932  96.422 139.961  0.00  0.00    +0.001 A 
ATOM     21  C14 T15     1     141.643  96.570 138.595  0.00  0.00    +0.011 A 
ENDBRANCH   4  16
BRANCH   1  22
ATOM     22  O1  T15     1     146.332  96.848 133.829  0.00  0.00    -0.469 OA
BRANCH  22  23
ATOM     23  C6  T15     1     146.838  95.505 133.692  0.00  0.00    +0.286 C 
BRANCH  23  29
ATOM     24  C1  T15     1     146.724  92.896 129.303  0.00  0.00    +0.044 C 
ATOM     25  C2  T15     1     147.243  94.031 130.170  0.00  0.00    -0.047 A 
ATOM     26  C3  T15     1     148.205  94.930 129.680  0.00  0.00    +0.023 A 
ATOM     27  C4  T15     1     148.661  95.962 130.517  0.00  0.00    +0.111 A 
ATOM     28  N1  T15     1     148.221  96.128 131.780  0.00  0.00    -0.256 NA
ATOM     29  C5  T15     1     147.302  95.263 132.262  0.00  0.00    +0.079 A 
ATOM     30  C24 T15     1     146.783  94.206 131.487  0.00  0.00    +0.030 A 
ENDBRANCH  23  29
ENDBRANCH  22  23
ENDBRANCH   1  22
TORSDOF 4
ENDMDL
MODEL 4
REMARK VINA RESULT:    -8.185      3.448      7.971
REMARK INTER + INTRA:         -11.236
REMARK INTER:                 -10.237
REMARK INTRA:                  -1.000
REMARK UNBOUND:                -1.138
REMARK  Name = ligands_pdb/TRN_CHEMBL360733.pdb
REMARK  5 active torsions:
REMARK  status: ('A' for Active; 'I' for Inactive)
REMARK    1  A    between atoms: C1_1  and  C2_2
REMARK    2  A    between atoms: C5_6  and  C6_7
REMARK    3  A    between atoms: C6_7  and  O1_8
REMARK    4  A    between atoms: O1_8  and  C7_9
REMARK    5  A    between atoms: C8_12  and  C9_13
REMARK                            x       y       z     vdW  Elec       q    Type
REMARK                         _______ _______ _______ _____ _____    ______ ____
ROOT
ATOM      1  C7  T15     1     140.609  96.444 131.700  0.00  0.00    +0.237 A 
ATOM      2  N2  T15     1     140.136  96.510 130.429  0.00  0.00    -0.125 NA
ATOM      3  N3  T15     1     140.105  97.723 129.823  0.00  0.00    -0.189 N 
ATOM      4  C8  T15     1     139.667  98.145 128.586  0.00  0.00    +0.185 A 
ATOM      5  N4  T15     1     139.799  99.478 128.542  0.00  0.00    -0.127 NA
ATOM      6  N5  T15     1     140.294  99.901 129.629  0.00  0.00    -0.127 NA
ATOM      7  C15 T15     1     140.484  98.886 130.412  0.00  0.00    +0.182 A 
ATOM      8  C16 T15     1     140.971  98.857 131.726  0.00  0.00    +0.010 A 
ATOM      9  C17 T15     1     141.040  97.612 132.374  0.00  0.00    +0.026 A 
ATOM     10  C18 T15     1     141.576  97.693 133.802  0.00  0.00    +0.025 C 
ATOM     11  C19 T15     1     140.645  98.665 134.581  0.00  0.00    +0.009 C 
ATOM     12  C20 T15     1     140.561 100.048 133.855  0.00  0.00    +0.009 C 
ATOM     13  C21 T15     1     141.436 100.041 132.568  0.00  0.00    +0.023 C 
ATOM     14  C22 T15     1     142.902  99.736 132.996  0.00  0.00    +0.009 C 
ATOM     15  C23 T15     1     142.984  98.353 133.721  0.00  0.00    +0.009 C 
ENDROOT
BRANCH   4  16
ATOM     16  C9  T15     1     139.122  97.321 127.500  0.00  0.00    +0.021 A 
ATOM     17  C10 T15     1     139.831  97.199 126.287  0.00  0.00    +0.011 A 
ATOM     18  C11 T15     1     139.328  96.410 125.240  0.00  0.00    +0.001 A 
ATOM     19  C12 T15     1     138.112  95.726 125.395  0.00  0.00    +0.000 A 
ATOM     20  C13 T15     1     137.404  95.831 126.602  0.00  0.00    +0.001 A 
ATOM     21  C14 T15     1     137.906  96.622 127.649  0.00  0.00    +0.011 A 
ENDBRANCH   4  16
BRANCH   1  22
ATOM     22  O1  T15     1     140.677  95.240 132.364  0.00  0.00    -0.469 OA
BRANCH  22  23
ATOM     23  C6  T15     1     141.329  94.088 131.791  0.00  0.00    +0.286 C 
BRANCH  23  29
ATOM     24  C1  T15     1     145.867  96.419 131.549  0.00  0.00    +0.044 C 
ATOM     25  C2  T15     1     144.742  95.616 130.918  0.00  0.00    -0.047 A 
ATOM     26  C3  T15     1     144.803  95.226 129.570  0.00  0.00    +0.023 A 
ATOM     27  C4  T15     1     143.738  94.489 129.025  0.00  0.00    +0.111 A 
ATOM     28  N1  T15     1     142.650  94.140 129.739  0.00  0.00    -0.256 NA
ATOM     29  C5  T15     1     142.579  94.517 131.034  0.00  0.00    +0.079 A 
ATOM     30  C24 T15     1     143.606  95.249 131.662  0.00  0.00    +0.030 A 
ENDBRANCH  23  29
ENDBRANCH  22  23
ENDBRANCH   1  22
TORSDOF 4
ENDMDL
MODEL 5
REMARK VINA RESULT:    -7.975      1.650      2.142
REMARK INTER + INTRA:         -10.978
REMARK INTER:                  -9.538
REMARK INTRA:                  -1.440
REMARK UNBOUND:                -1.138
REMARK  Name = ligands_pdb/TRN_CHEMBL360733.pdb
REMARK  5 active torsions:
REMARK  status: ('A' for Active; 'I' for Inactive)
REMARK    1  A    between atoms: C1_1  and  C2_2
REMARK    2  A    between atoms: C5_6  and  C6_7
REMARK    3  A    between atoms: C6_7  and  O1_8
REMARK    4  A    between atoms: O1_8  and  C7_9
REMARK    5  A    between atoms: C8_12  and  C9_13
REMARK                            x       y       z     vdW  Elec       q    Type
REMARK                         _______ _______ _______ _____ _____    ______ ____
ROOT
ATOM      1  C7  T15     1     142.421  95.625 132.239  0.00  0.00    +0.237 A 
ATOM      2  N2  T15     1     142.509  95.885 133.569  0.00  0.00    -0.125 NA
ATOM      3  N3  T15     1     143.695  96.335 134.052  0.00  0.00    -0.189 N 
ATOM      4  C8  T15     1     144.133  96.656 135.319  0.00  0.00    +0.185 A 
ATOM      5  N4  T15     1     145.432  96.972 135.232  0.00  0.00    -0.127 NA
ATOM      6  N5  T15     1     145.818  96.891 134.027  0.00  0.00    -0.127 NA
ATOM      7  C15 T15     1     144.813  96.513 133.302  0.00  0.00    +0.182 A 
ATOM      8  C16 T15     1     144.760  96.246 131.927  0.00  0.00    +0.010 A 
ATOM      9  C17 T15     1     143.539  95.803 131.390  0.00  0.00    +0.026 A 
ATOM     10  C18 T15     1     143.591  95.536 129.887  0.00  0.00    +0.025 C 
ATOM     11  C19 T15     1     144.709  94.479 129.654  0.00  0.00    +0.009 C 
ATOM     12  C20 T15     1     146.065  94.969 130.260  0.00  0.00    +0.009 C 
ATOM     13  C21 T15     1     145.894  96.370 130.915  0.00  0.00    +0.023 C 
ATOM     14  C22 T15     1     145.403  97.351 129.811  0.00  0.00    +0.009 C 
ATOM     15  C23 T15     1     144.046  96.860 129.207  0.00  0.00    +0.009 C 
ENDROOT
BRANCH   4  16
ATOM     16  C9  T15     1     143.357  96.640 136.565  0.00  0.00    +0.021 A 
ATOM     17  C10 T15     1     142.192  97.426 136.679  0.00  0.00    +0.011 A 
ATOM     18  C11 T15     1     141.434  97.417 137.861  0.00  0.00    +0.001 A 
ATOM     19  C12 T15     1     141.829  96.616 138.944  0.00  0.00    +0.000 A 
ATOM     20  C13 T15     1     142.981  95.822 138.839  0.00  0.00    +0.001 A 
ATOM     21  C14 T15     1     143.740  95.831 137.657  0.00  0.00    +0.011 A 
ENDBRANCH   4  16
BRANCH   1  22
ATOM     22  O1  T15     1     141.242  95.177 131.687  0.00  0.00    -0.469 OA
BRANCH  22  23
ATOM     23  C6  T15     1     140.111  96.051 131.492  0.00  0.00    +0.286 C 
BRANCH  23  29
ATOM     24  C1  T15     1     141.360 100.521 129.359  0.00  0.00    +0.044 C 
ATOM     25  C2  T15     1     140.944  99.063 129.260  0.00  0.00    -0.047 A 
ATOM     26  C3  T15     1     140.743  98.454 128.009  0.00  0.00    +0.023 A 
ATOM     27  C4  T15     1     140.353  97.105 127.964  0.00  0.00    +0.111 A 
ATOM     28  N1  T15     1     140.157  96.362 129.072  0.00  0.00    -0.256 NA
ATOM     29  C5  T15     1     140.341  96.941 130.278  0.00  0.00    +0.079 A 
ATOM     30  C24 T15     1     140.741  98.286 130.414  0.00  0.00    +0.030 A 
ENDBRANCH  23  29
ENDBRANCH  22  23
ENDBRANCH   1  22
TORSDOF 4
ENDMDL
MODEL 6
REMARK VINA RESULT:    -7.958      2.902      8.498
REMARK INTER + INTRA:         -10.957
REMARK INTER:                  -9.506
REMARK INTRA:                  -1.451
REMARK UNBOUND:                -1.138
REMARK  Name = ligands_pdb/TRN_CHEMBL360733.pdb
REMARK  5 active torsions:
REMARK  status: ('A' for Active; 'I' for Inactive)
REMARK    1  A    between atoms: C1_1  and  C2_2
REMARK    2  A    between atoms: C5_6  and  C6_7
REMARK    3  A    between atoms: C6_7  and  O1_8
REMARK    4  A    between atoms: O1_8  and  C7_9
REMARK    5  A    between atoms: C8_12  and  C9_13
REMARK                            x       y       z     vdW  Elec       q    Type
REMARK                         _______ _______ _______ _____ _____    ______ ____
ROOT
ATOM      1  C7  T15     1     140.284  96.810 130.534  0.00  0.00    +0.237 A 
ATOM      2  N2  T15     1     140.032  96.372 129.274  0.00  0.00    -0.125 NA
ATOM      3  N3  T15     1     140.310  97.208 128.242  0.00  0.00    -0.189 N 
ATOM      4  C8  T15     1     140.150  97.102 126.876  0.00  0.00    +0.185 A 
ATOM      5  N4  T15     1     140.522  98.268 126.333  0.00  0.00    -0.127 NA
ATOM      6  N5  T15     1     140.910  99.066 127.238  0.00  0.00    -0.127 NA
ATOM      7  C15 T15     1     140.795  98.469 128.383  0.00  0.00    +0.182 A 
ATOM      8  C16 T15     1     141.059  98.956 129.670  0.00  0.00    +0.010 A 
ATOM      9  C17 T15     1     140.806  98.106 130.760  0.00  0.00    +0.026 A 
ATOM     10  C18 T15     1     141.121  98.736 132.115  0.00  0.00    +0.025 C 
ATOM     11  C19 T15     1     140.268 100.033 132.221  0.00  0.00    +0.009 C 
ATOM     12  C20 T15     1     140.544 100.975 131.002  0.00  0.00    +0.009 C 
ATOM     13  C21 T15     1     141.592 100.335 130.047  0.00  0.00    +0.023 C 
ATOM     14  C22 T15     1     142.896 100.102 130.863  0.00  0.00    +0.009 C 
ATOM     15  C23 T15     1     142.619  99.160 132.081  0.00  0.00    +0.009 C 
ENDROOT
BRANCH   4  16
ATOM     16  C9  T15     1     139.642  95.950 126.121  0.00  0.00    +0.021 A 
ATOM     17  C10 T15     1     138.256  95.697 126.073  0.00  0.00    +0.011 A 
ATOM     18  C11 T15     1     137.752  94.603 125.350  0.00  0.00    +0.001 A 
ATOM     19  C12 T15     1     138.629  93.752 124.660  0.00  0.00    +0.000 A 
ATOM     20  C13 T15     1     140.010  94.000 124.692  0.00  0.00    +0.001 A 
ATOM     21  C14 T15     1     140.514  95.093 125.416  0.00  0.00    +0.011 A 
ENDBRANCH   4  16
BRANCH   1  22
ATOM     22  O1  T15     1     140.034  96.004 131.622  0.00  0.00    -0.469 OA
BRANCH  22  23
ATOM     23  C6  T15     1     140.898  94.903 131.970  0.00  0.00    +0.286 C 
BRANCH  23  29
ATOM     24  C1  T15     1     145.863  96.080 131.751  0.00  0.00    +0.044 C 
ATOM     25  C2  T15     1     144.542  95.995 132.496  0.00  0.00    -0.047 A 
ATOM     26  C3  T15     1     144.443  96.401 133.838  0.00  0.00    +0.023 A 
ATOM     27  C4  T15     1     143.203  96.301 134.490  0.00  0.00    +0.111 A 
ATOM     28  N1  T15     1     142.096  95.825 133.887  0.00  0.00    -0.256 NA
ATOM     29  C5  T15     1     142.183  95.425 132.599  0.00  0.00    +0.079 A 
ATOM     30  C24 T15     1     143.385  95.501 131.868  0.00  0.00    +0.030 A 
ENDBRANCH  23  29
ENDBRANCH  22  23
ENDBRANCH   1  22
TORSDOF 4
ENDMDL
MODEL 7
REMARK VINA RESULT:    -7.948      2.318      4.798
REMARK INTER + INTRA:         -10.944
REMARK INTER:                  -9.505
REMARK INTRA:                  -1.439
REMARK UNBOUND:                -1.138
REMARK  Name = ligands_pdb/TRN_CHEMBL360733.pdb
REMARK  5 active torsions:
REMARK  status: ('A' for Active; 'I' for Inactive)
REMARK    1  A    between atoms: C1_1  and  C2_2
REMARK    2  A    between atoms: C5_6  and  C6_7
REMARK    3  A    between atoms: C6_7  and  O1_8
REMARK    4  A    between atoms: O1_8  and  C7_9
REMARK    5  A    between atoms: C8_12  and  C9_13
REMARK                            x       y       z     vdW  Elec       q    Type
REMARK                         _______ _______ _______ _____ _____    ______ ____
ROOT
ATOM      1  C7  T15     1     141.344  96.111 131.135  0.00  0.00    +0.237 A 
ATOM      2  N2  T15     1     141.690  96.337 132.428  0.00  0.00    -0.125 NA
ATOM      3  N3  T15     1     141.657  97.615 132.881  0.00  0.00    -0.189 N 
ATOM      4  C8  T15     1     141.970  98.191 134.095  0.00  0.00    +0.185 A 
ATOM      5  N4  T15     1     141.828  99.517 133.963  0.00  0.00    -0.127 NA
ATOM      6  N5  T15     1     141.440  99.798 132.789  0.00  0.00    -0.127 NA
ATOM      7  C15 T15     1     141.332  98.692 132.121  0.00  0.00    +0.182 A 
ATOM      8  C16 T15     1     140.976  98.496 130.780  0.00  0.00    +0.010 A 
ATOM      9  C17 T15     1     140.976  97.181 130.286  0.00  0.00    +0.026 A 
ATOM     10  C18 T15     1     140.582  97.079 128.813  0.00  0.00    +0.025 C 
ATOM     11  C19 T15     1     141.581  97.965 128.014  0.00  0.00    +0.009 C 
ATOM     12  C20 T15     1     141.587  99.427 128.572  0.00  0.00    +0.009 C 
ATOM     13  C21 T15     1     140.590  99.561 129.759  0.00  0.00    +0.023 C 
ATOM     14  C22 T15     1     139.175  99.184 129.232  0.00  0.00    +0.009 C 
ATOM     15  C23 T15     1     139.170  97.721 128.677  0.00  0.00    +0.009 C 
ENDROOT
BRANCH   4  16
ATOM     16  C9  T15     1     142.409  97.514 135.321  0.00  0.00    +0.021 A 
ATOM     17  C10 T15     1     143.603  96.763 135.320  0.00  0.00    +0.011 A 
ATOM     18  C11 T15     1     144.042  96.114 136.486  0.00  0.00    +0.001 A 
ATOM     19  C12 T15     1     143.295  96.213 137.670  0.00  0.00    +0.000 A 
ATOM     20  C13 T15     1     142.111  96.966 137.685  0.00  0.00    +0.001 A 
ATOM     21  C14 T15     1     141.671  97.614 136.519  0.00  0.00    +0.011 A 
ENDBRANCH   4  16
BRANCH   1  22
ATOM     22  O1  T15     1     141.347  94.834 130.619  0.00  0.00    -0.469 OA
BRANCH  22  23
ATOM     23  C6  T15     1     142.571  94.105 130.394  0.00  0.00    +0.286 C 
BRANCH  23  29
ATOM     24  C1  T15     1     146.310  97.161 128.732  0.00  0.00    +0.044 C 
ATOM     25  C2  T15     1     145.156  96.205 128.483  0.00  0.00    -0.047 A 
ATOM     26  C3  T15     1     144.761  95.877 127.175  0.00  0.00    +0.023 A 
ATOM     27  C4  T15     1     143.685  94.993 126.990  0.00  0.00    +0.111 A 
ATOM     28  N1  T15     1     143.004  94.444 128.016  0.00  0.00    -0.256 NA
ATOM     29  C5  T15     1     143.372  94.760 129.277  0.00  0.00    +0.079 A 
ATOM     30  C24 T15     1     144.446  95.630 129.552  0.00  0.00    +0.030 A 
ENDBRANCH  23  29
ENDBRANCH  22  23
ENDBRANCH   1  22
TORSDOF 4
ENDMDL
MODEL 8
REMARK VINA RESULT:    -7.820      3.191      8.283
REMARK INTER + INTRA:         -10.786
REMARK INTER:                  -9.738
REMARK INTRA:                  -1.048
REMARK UNBOUND:                -1.138
REMARK  Name = ligands_pdb/TRN_CHEMBL360733.pdb
REMARK  5 active torsions:
REMARK  status: ('A' for Active; 'I' for Inactive)
REMARK    1  A    between atoms: C1_1  and  C2_2
REMARK    2  A    between atoms: C5_6  and  C6_7
REMARK    3  A    between atoms: C6_7  and  O1_8
REMARK    4  A    between atoms: O1_8  and  C7_9
REMARK    5  A    between atoms: C8_12  and  C9_13
REMARK                            x       y       z     vdW  Elec       q    Type
REMARK                         _______ _______ _______ _____ _____    ______ ____
ROOT
ATOM      1  C7  T15     1     141.906  96.345 131.109  0.00  0.00    +0.237 A 
ATOM      2  N2  T15     1     141.145  96.471 129.992  0.00  0.00    -0.125 NA
ATOM      3  N3  T15     1     140.429  97.613 129.835  0.00  0.00    -0.189 N 
ATOM      4  C8  T15     1     139.549  98.045 128.865  0.00  0.00    +0.185 A 
ATOM      5  N4  T15     1     139.065  99.231 129.257  0.00  0.00    -0.127 NA
ATOM      6  N5  T15     1     139.582  99.567 130.365  0.00  0.00    -0.127 NA
ATOM      7  C15 T15     1     140.394  98.628 130.736  0.00  0.00    +0.182 A 
ATOM      8  C16 T15     1     141.161  98.528 131.905  0.00  0.00    +0.010 A 
ATOM      9  C17 T15     1     141.935  97.368 132.086  0.00  0.00    +0.026 A 
ATOM     10  C18 T15     1     142.726  97.357 133.392  0.00  0.00    +0.025 C 
ATOM     11  C19 T15     1     141.695  97.514 134.547  0.00  0.00    +0.009 C 
ATOM     12  C20 T15     1     140.828  98.799 134.340  0.00  0.00    +0.009 C 
ATOM     13  C21 T15     1     141.256  99.541 133.041  0.00  0.00    +0.023 C 
ATOM     14  C22 T15     1     142.760  99.914 133.183  0.00  0.00    +0.009 C 
ATOM     15  C23 T15     1     143.626  98.628 133.388  0.00  0.00    +0.009 C 
ENDROOT
BRANCH   4  16
ATOM     16  C9  T15     1     139.166  97.351 127.630  0.00  0.00    +0.021 A 
ATOM     17  C10 T15     1     139.960  97.485 126.473  0.00  0.00    +0.011 A 
ATOM     18  C11 T15     1     139.612  96.822 125.284  0.00  0.00    +0.001 A 
ATOM     19  C12 T15     1     138.467  96.011 125.240  0.00  0.00    +0.000 A 
ATOM     20  C13 T15     1     137.676  95.862 126.389  0.00  0.00    +0.001 A 
ATOM     21  C14 T15     1     138.023  96.525 127.577  0.00  0.00    +0.011 A 
ENDBRANCH   4  16
BRANCH   1  22
ATOM     22  O1  T15     1     142.665  95.215 131.319  0.00  0.00    -0.469 OA
BRANCH  22  23
ATOM     23  C6  T15     1     143.695  94.805 130.397  0.00  0.00    +0.286 C 
BRANCH  23  29
ATOM     24  C1  T15     1     146.723  96.210 134.262  0.00  0.00    +0.044 C 
ATOM     25  C2  T15     1     146.513  95.716 132.840  0.00  0.00    -0.047 A 
ATOM     26  C3  T15     1     147.608  95.470 131.994  0.00  0.00    +0.023 A 
ATOM     27  C4  T15     1     147.367  95.019 130.685  0.00  0.00    +0.111 A 
ATOM     28  N1  T15     1     146.128  94.816 130.197  0.00  0.00    -0.256 NA
ATOM     29  C5  T15     1     145.069  95.059 131.001  0.00  0.00    +0.079 A 
ATOM     30  C24 T15     1     145.220  95.503 132.330  0.00  0.00    +0.030 A 
ENDBRANCH  23  29
ENDBRANCH  22  23
ENDBRANCH   1  22
TORSDOF 4
ENDMDL
MODEL 9
REMARK VINA RESULT:    -7.810      3.130      7.735
REMARK INTER + INTRA:         -10.775
REMARK INTER:                  -9.618
REMARK INTRA:                  -1.156
REMARK UNBOUND:                -1.138
REMARK  Name = ligands_pdb/TRN_CHEMBL360733.pdb
REMARK  5 active torsions:
REMARK  status: ('A' for Active; 'I' for Inactive)
REMARK    1  A    between atoms: C1_1  and  C2_2
REMARK    2  A    between atoms: C5_6  and  C6_7
REMARK    3  A    between atoms: C6_7  and  O1_8
REMARK    4  A    between atoms: O1_8  and  C7_9
REMARK    5  A    between atoms: C8_12  and  C9_13
REMARK                            x       y       z     vdW  Elec       q    Type
REMARK                         _______ _______ _______ _____ _____    ______ ____
ROOT
ATOM      1  C7  T15     1     142.835  98.461 129.459  0.00  0.00    +0.237 A 
ATOM      2  N2  T15     1     141.703  98.240 128.743  0.00  0.00    -0.125 NA
ATOM      3  N3  T15     1     141.589  97.063 128.079  0.00  0.00    -0.189 N 
ATOM      4  C8  T15     1     140.617  96.540 127.252  0.00  0.00    +0.185 A 
ATOM      5  N4  T15     1     141.060  95.358 126.802  0.00  0.00    -0.127 NA
ATOM      6  N5  T15     1     142.201  95.107 127.294  0.00  0.00    -0.127 NA
ATOM      7  C15 T15     1     142.545  96.099 128.053  0.00  0.00    +0.182 A 
ATOM      8  C16 T15     1     143.730  96.296 128.775  0.00  0.00    +0.010 A 
ATOM      9  C17 T15     1     143.869  97.495 129.495  0.00  0.00    +0.026 A 
ATOM     10  C18 T15     1     145.198  97.613 130.239  0.00  0.00    +0.025 C 
ATOM     11  C19 T15     1     146.326  97.477 129.176  0.00  0.00    +0.009 C 
ATOM     12  C20 T15     1     146.165  96.146 128.369  0.00  0.00    +0.009 C 
ATOM     13  C21 T15     1     144.924  95.352 128.871  0.00  0.00    +0.023 C 
ATOM     14  C22 T15     1     145.136  95.052 130.384  0.00  0.00    +0.009 C 
ATOM     15  C23 T15     1     145.296  96.383 131.189  0.00  0.00    +0.009 C 
ENDROOT
BRANCH   4  16
ATOM     16  C9  T15     1     139.333  97.148 126.884  0.00  0.00    +0.021 A 
ATOM     17  C10 T15     1     139.282  98.501 126.491  0.00  0.00    +0.011 A 
ATOM     18  C11 T15     1     138.063  99.097 126.129  0.00  0.00    +0.001 A 
ATOM     19  C12 T15     1     136.878  98.344 126.150  0.00  0.00    +0.000 A 
ATOM     20  C13 T15     1     136.918  96.994 126.529  0.00  0.00    +0.001 A 
ATOM     21  C14 T15     1     138.138  96.398 126.892  0.00  0.00    +0.011 A 
ENDBRANCH   4  16
BRANCH   1  22
ATOM     22  O1  T15     1     143.005  99.631 130.164  0.00  0.00    -0.469 OA
BRANCH  22  23
ATOM     23  C6  T15     1     141.985 100.147 131.044  0.00  0.00    +0.286 C 
BRANCH  23  29
ATOM     24  C1  T15     1     144.403  97.728 134.837  0.00  0.00    +0.044 C 
ATOM     25  C2  T15     1     143.136  98.234 134.168  0.00  0.00    -0.047 A 
ATOM     26  C3  T15     1     141.875  98.002 134.743  0.00  0.00    +0.023 A 
ATOM     27  C4  T15     1     140.729  98.483 134.088  0.00  0.00    +0.111 A 
ATOM     28  N1  T15     1     140.781  99.156 132.921  0.00  0.00    -0.256 NA
ATOM     29  C5  T15     1     141.989  99.376 132.357  0.00  0.00    +0.079 A 
ATOM     30  C24 T15     1     143.189  98.938 132.952  0.00  0.00    +0.030 A 
ENDBRANCH  23  29
ENDBRANCH  22  23
ENDBRANCH   1  22
TORSDOF 4
ENDMDL
MODEL 10
REMARK VINA RESULT:    -7.763      3.511      7.993
REMARK INTER + INTRA:         -10.716
REMARK INTER:                  -9.478
REMARK INTRA:                  -1.238
REMARK UNBOUND:                -1.138
REMARK  Name = ligands_pdb/TRN_CHEMBL360733.pdb
REMARK  5 active torsions:
REMARK  status: ('A' for Active; 'I' for Inactive)
REMARK    1  A    between atoms: C1_1  and  C2_2
REMARK    2  A    between atoms: C5_6  and  C6_7
REMARK    3  A    between atoms: C6_7  and  O1_8
REMARK    4  A    between atoms: O1_8  and  C7_9
REMARK    5  A    between atoms: C8_12  and  C9_13
REMARK                            x       y       z     vdW  Elec       q    Type
REMARK                         _______ _______ _______ _____ _____    ______ ____
ROOT
ATOM      1  C7  T15     1     142.810  98.730 129.076  0.00  0.00    +0.237 A 
ATOM      2  N2  T15     1     143.705  97.916 128.461  0.00  0.00    -0.125 NA
ATOM      3  N3  T15     1     143.228  96.838 127.789  0.00  0.00    -0.189 N 
ATOM      4  C8  T15     1     143.841  95.813 127.100  0.00  0.00    +0.185 A 
ATOM      5  N4  T15     1     142.884  94.966 126.698  0.00  0.00    -0.127 NA
ATOM      6  N5  T15     1     141.747  95.390 127.063  0.00  0.00    -0.127 NA
ATOM      7  C15 T15     1     141.916  96.497 127.715  0.00  0.00    +0.182 A 
ATOM      8  C16 T15     1     140.964  97.311 128.345  0.00  0.00    +0.010 A 
ATOM      9  C17 T15     1     141.423  98.450 129.028  0.00  0.00    +0.026 A 
ATOM     10  C18 T15     1     140.308  99.263 129.683  0.00  0.00    +0.025 C 
ATOM     11  C19 T15     1     139.560  98.305 130.654  0.00  0.00    +0.009 C 
ATOM     12  C20 T15     1     139.058  97.033 129.895  0.00  0.00    +0.009 C 
ATOM     13  C21 T15     1     139.454  97.105 128.392  0.00  0.00    +0.023 C 
ATOM     14  C22 T15     1     138.808  98.389 127.794  0.00  0.00    +0.009 C 
ATOM     15  C23 T15     1     139.312  99.660 128.553  0.00  0.00    +0.009 C 
ENDROOT
BRANCH   4  16
ATOM     16  C9  T15     1     145.277  95.633 126.853  0.00  0.00    +0.021 A 
ATOM     17  C10 T15     1     146.192  95.739 127.921  0.00  0.00    +0.011 A 
ATOM     18  C11 T15     1     147.569  95.563 127.704  0.00  0.00    +0.001 A 
ATOM     19  C12 T15     1     148.047  95.272 126.417  0.00  0.00    +0.000 A 
ATOM     20  C13 T15     1     147.144  95.153 125.350  0.00  0.00    +0.001 A 
ATOM     21  C14 T15     1     145.768  95.330 125.566  0.00  0.00    +0.011 A 
ENDBRANCH   4  16
BRANCH   1  22
ATOM     22  O1  T15     1     143.231  99.847 129.763  0.00  0.00    -0.469 OA
BRANCH  22  23
ATOM     23  C6  T15     1     144.252  99.776 130.780  0.00  0.00    +0.286 C 
BRANCH  23  29
ATOM     24  C1  T15     1     140.666  99.032 134.341  0.00  0.00    +0.044 C 
ATOM     25  C2  T15     1     142.006  98.702 133.703  0.00  0.00    -0.047 A 
ATOM     26  C3  T15     1     142.833  97.701 134.241  0.00  0.00    +0.023 A 
ATOM     27  C4  T15     1     144.065  97.432 133.623  0.00  0.00    +0.111 A 
ATOM     28  N1  T15     1     144.498  98.097 132.533  0.00  0.00    -0.256 NA
ATOM     29  C5  T15     1     143.713  99.066 132.014  0.00  0.00    +0.079 A 
ATOM     30  C24 T15     1     142.458  99.393 132.565  0.00  0.00    +0.030 A 
ENDBRANCH  23  29
ENDBRANCH  22  23
ENDBRANCH   1  22
TORSDOF 4
ENDMDL
