MODEL 1
REMARK VINA RESULT:    -9.610      0.000      0.000
REMARK INTER + INTRA:         -13.892
REMARK INTER:                 -12.700
REMARK INTRA:                  -1.192
REMARK UNBOUND:                -1.192
REMARK  Name = ligands_pdb/TRN_CHEMBL179737.pdb
REMARK  6 active torsions:
REMARK  status: ('A' for Active; 'I' for Inactive)
REMARK    1  A    between atoms: O1_1  and  C1_2
REMARK    2  A    between atoms: C1_2  and  C2_3
REMARK    3  A    between atoms: C5_6  and  C6_7
REMARK    4  A    between atoms: C6_7  and  O2_8
REMARK    5  A    between atoms: O2_8  and  C7_9
REMARK    6  A    between atoms: C8_12  and  C9_13
REMARK                            x       y       z     vdW  Elec       q    Type
REMARK                         _______ _______ _______ _____ _____    ______ ____
ROOT
ATOM      1  C7  T10     1     141.840  97.721 133.574  0.00  0.00    +0.237 A 
ATOM      2  N1  T10     1     142.101  97.572 134.898  0.00  0.00    -0.125 NA
ATOM      3  N2  T10     1     143.258  96.958 135.254  0.00  0.00    -0.189 N 
ATOM      4  C8  T10     1     143.799  96.607 136.472  0.00  0.00    +0.185 A 
ATOM      5  N3  T10     1     144.935  95.938 136.234  0.00  0.00    -0.127 NA
ATOM      6  N4  T10     1     145.142  95.865 134.985  0.00  0.00    -0.127 NA
ATOM      7  C15 T10     1     144.162  96.455 134.375  0.00  0.00    +0.182 A 
ATOM      8  C16 T10     1     143.920  96.583 133.001  0.00  0.00    +0.010 A 
ATOM      9  C17 T10     1     142.741  97.234 132.599  0.00  0.00    +0.026 A 
ATOM     10  C18 T10     1     142.573  97.315 131.082  0.00  0.00    +0.025 C 
ATOM     11  C19 T10     1     142.602  95.855 130.546  0.00  0.00    +0.009 C 
ATOM     12  C20 T10     1     143.909  95.127 131.001  0.00  0.00    +0.009 C 
ATOM     13  C21 T10     1     144.794  96.081 131.856  0.00  0.00    +0.023 C 
ATOM     14  C22 T10     1     145.136  97.319 130.978  0.00  0.00    +0.009 C 
ATOM     15  C23 T10     1     143.827  98.047 130.525  0.00  0.00    +0.009 C 
ENDROOT
BRANCH   4  16
ATOM     16  C9  T10     1     143.245  96.868 137.806  0.00  0.00    +0.021 A 
ATOM     17  C10 T10     1     142.281  95.993 138.350  0.00  0.00    +0.011 A 
ATOM     18  C11 T10     1     141.742  96.226 139.626  0.00  0.00    +0.001 A 
ATOM     19  C12 T10     1     142.165  97.333 140.377  0.00  0.00    +0.000 A 
ATOM     20  C13 T10     1     143.130  98.205 139.851  0.00  0.00    +0.001 A 
ATOM     21  C14 T10     1     143.667  97.972 138.574  0.00  0.00    +0.011 A 
ENDBRANCH   4  16
BRANCH   1  22
ATOM     22  O2  T10     1     140.685  98.344 133.152  0.00  0.00    -0.470 OA
BRANCH  22  23
ATOM     23  C6  T10     1     140.668  99.726 132.751  0.00  0.00    +0.266 C 
BRANCH  23  27
ATOM     24  C2  T10     1     139.825  99.935 128.496  0.00  0.00    -0.022 A 
ATOM     25  C3  T10     1     140.663 100.889 129.101  0.00  0.00    +0.006 A 
ATOM     26  C4  T10     1     140.936 100.821 130.477  0.00  0.00    +0.007 A 
ATOM     27  C5  T10     1     140.376  99.797 131.262  0.00  0.00    -0.010 A 
ATOM     28  C24 T10     1     139.537  98.844 130.658  0.00  0.00    +0.007 A 
ATOM     29  C25 T10     1     139.264  98.912 129.281  0.00  0.00    +0.006 A 
BRANCH  24  30
ATOM     30  C1  T10     1     139.529 100.010 127.007  0.00  0.00    +0.191 C 
BRANCH  30  31
ATOM     31  O1  T10     1     139.905 101.283 126.488  0.00  0.00    -0.390 OA
ATOM     32  H1  T10     1     140.865 101.385 126.613  0.00  0.00    +0.210 HD
ENDBRANCH  30  31
ENDBRANCH  24  30
ENDBRANCH  23  27
ENDBRANCH  22  23
ENDBRANCH   1  22
TORSDOF 6
ENDMDL
MODEL 2
REMARK VINA RESULT:    -9.546      0.144      1.239
REMARK INTER + INTRA:         -13.808
REMARK INTER:                 -12.489
REMARK INTRA:                  -1.318
REMARK UNBOUND:                -1.192
REMARK  Name = ligands_pdb/TRN_CHEMBL179737.pdb
REMARK  6 active torsions:
REMARK  status: ('A' for Active; 'I' for Inactive)
REMARK    1  A    between atoms: O1_1  and  C1_2
REMARK    2  A    between atoms: C1_2  and  C2_3
REMARK    3  A    between atoms: C5_6  and  C6_7
REMARK    4  A    between atoms: C6_7  and  O2_8
REMARK    5  A    between atoms: O2_8  and  C7_9
REMARK    6  A    between atoms: C8_12  and  C9_13
REMARK                            x       y       z     vdW  Elec       q    Type
REMARK                         _______ _______ _______ _____ _____    ______ ____
ROOT
ATOM      1  C7  T10     1     141.812  97.586 133.564  0.00  0.00    +0.237 A 
ATOM      2  N1  T10     1     142.068  97.439 134.889  0.00  0.00    -0.125 NA
ATOM      3  N2  T10     1     143.253  96.885 135.251  0.00  0.00    -0.189 N 
ATOM      4  C8  T10     1     143.802  96.552 136.471  0.00  0.00    +0.185 A 
ATOM      5  N3  T10     1     144.973  95.946 136.239  0.00  0.00    -0.127 NA
ATOM      6  N4  T10     1     145.194  95.894 134.991  0.00  0.00    -0.127 NA
ATOM      7  C15 T10     1     144.190  96.437 134.376  0.00  0.00    +0.182 A 
ATOM      8  C16 T10     1     143.954  96.563 133.001  0.00  0.00    +0.010 A 
ATOM      9  C17 T10     1     142.746  97.154 132.594  0.00  0.00    +0.026 A 
ATOM     10  C18 T10     1     142.587  97.239 131.076  0.00  0.00    +0.025 C 
ATOM     11  C19 T10     1     142.698  95.787 130.528  0.00  0.00    +0.009 C 
ATOM     12  C20 T10     1     144.037  95.125 130.991  0.00  0.00    +0.009 C 
ATOM     13  C21 T10     1     144.863  96.117 131.861  0.00  0.00    +0.023 C 
ATOM     14  C22 T10     1     145.147  97.379 130.995  0.00  0.00    +0.009 C 
ATOM     15  C23 T10     1     143.806  98.041 130.536  0.00  0.00    +0.009 C 
ENDROOT
BRANCH   4  16
ATOM     16  C9  T10     1     143.222  96.773 137.802  0.00  0.00    +0.021 A 
ATOM     17  C10 T10     1     143.629  97.884 138.570  0.00  0.00    +0.011 A 
ATOM     18  C11 T10     1     143.083  98.112 139.844  0.00  0.00    +0.001 A 
ATOM     19  C12 T10     1     142.118  97.235 140.363  0.00  0.00    +0.000 A 
ATOM     20  C13 T10     1     141.698  96.132 139.604  0.00  0.00    +0.001 A 
ATOM     21  C14 T10     1     142.245  95.904 138.331  0.00  0.00    +0.011 A 
ENDBRANCH   4  16
BRANCH   1  22
ATOM     22  O2  T10     1     140.629  98.150 133.136  0.00  0.00    -0.470 OA
BRANCH  22  23
ATOM     23  C6  T10     1     140.528  99.548 132.808  0.00  0.00    +0.266 C 
BRANCH  23  27
ATOM     24  C2  T10     1     140.026  99.931 128.511  0.00  0.00    -0.022 A 
ATOM     25  C3  T10     1     139.289  98.971 129.229  0.00  0.00    +0.006 A 
ATOM     26  C4  T10     1     139.452  98.847 130.619  0.00  0.00    +0.007 A 
ATOM     27  C5  T10     1     140.350  99.684 131.306  0.00  0.00    -0.010 A 
ATOM     28  C24 T10     1     141.087 100.642 130.588  0.00  0.00    +0.007 A 
ATOM     29  C25 T10     1     140.925 100.766 129.198  0.00  0.00    +0.006 A 
BRANCH  24  30
ATOM     30  C1  T10     1     139.850 100.063 127.007  0.00  0.00    +0.191 C 
BRANCH  30  31
ATOM     31  O1  T10     1     139.951 101.429 126.612  0.00  0.00    -0.390 OA
ATOM     32  H1  T10     1     139.277 101.932 127.102  0.00  0.00    +0.210 HD
ENDBRANCH  30  31
ENDBRANCH  24  30
ENDBRANCH  23  27
ENDBRANCH  22  23
ENDBRANCH   1  22
TORSDOF 6
ENDMDL
MODEL 3
REMARK VINA RESULT:    -9.289      0.944      1.348
REMARK INTER + INTRA:         -13.467
REMARK INTER:                 -12.213
REMARK INTRA:                  -1.254
REMARK UNBOUND:                -1.192
REMARK  Name = ligands_pdb/TRN_CHEMBL179737.pdb
REMARK  6 active torsions:
REMARK  status: ('A' for Active; 'I' for Inactive)
REMARK    1  A    between atoms: O1_1  and  C1_2
REMARK    2  A    between atoms: C1_2  and  C2_3
REMARK    3  A    between atoms: C5_6  and  C6_7
REMARK    4  A    between atoms: C6_7  and  O2_8
REMARK    5  A    between atoms: O2_8  and  C7_9
REMARK    6  A    between atoms: C8_12  and  C9_13
REMARK                            x       y       z     vdW  Elec       q    Type
REMARK                         _______ _______ _______ _____ _____    ______ ____
ROOT
ATOM      1  C7  T10     1     141.928  96.983 133.113  0.00  0.00    +0.237 A 
ATOM      2  N1  T10     1     142.171  96.945 134.448  0.00  0.00    -0.125 NA
ATOM      3  N2  T10     1     143.436  96.676 134.858  0.00  0.00    -0.189 N 
ATOM      4  C8  T10     1     144.007  96.516 136.102  0.00  0.00    +0.185 A 
ATOM      5  N3  T10     1     145.288  96.173 135.920  0.00  0.00    -0.127 NA
ATOM      6  N4  T10     1     145.554  96.125 134.681  0.00  0.00    -0.127 NA
ATOM      7  C15 T10     1     144.474  96.413 134.022  0.00  0.00    +0.182 A 
ATOM      8  C16 T10     1     144.257  96.434 132.639  0.00  0.00    +0.010 A 
ATOM      9  C17 T10     1     142.962  96.732 132.181  0.00  0.00    +0.026 A 
ATOM     10  C18 T10     1     142.834  96.725 130.658  0.00  0.00    +0.025 C 
ATOM     11  C19 T10     1     143.275  95.313 130.174  0.00  0.00    +0.009 C 
ATOM     12  C20 T10     1     144.712  94.977 130.692  0.00  0.00    +0.009 C 
ATOM     13  C21 T10     1     145.275  96.157 131.537  0.00  0.00    +0.023 C 
ATOM     14  C22 T10     1     145.304  97.418 130.626  0.00  0.00    +0.009 C 
ATOM     15  C23 T10     1     143.865  97.754 130.111  0.00  0.00    +0.009 C 
ENDROOT
BRANCH   4  16
ATOM     16  C9  T10     1     143.354  96.653 137.410  0.00  0.00    +0.021 A 
ATOM     17  C10 T10     1     143.637  97.769 138.224  0.00  0.00    +0.011 A 
ATOM     18  C11 T10     1     143.020  97.917 139.477  0.00  0.00    +0.001 A 
ATOM     19  C12 T10     1     142.105  96.954 139.928  0.00  0.00    +0.000 A 
ATOM     20  C13 T10     1     141.807  95.844 139.123  0.00  0.00    +0.001 A 
ATOM     21  C14 T10     1     142.427  95.695 137.871  0.00  0.00    +0.011 A 
ENDBRANCH   4  16
BRANCH   1  22
ATOM     22  O2  T10     1     140.664  97.260 132.636  0.00  0.00    -0.470 OA
BRANCH  22  23
ATOM     23  C6  T10     1     140.273  98.587 132.241  0.00  0.00    +0.266 C 
BRANCH  23  27
ATOM     24  C2  T10     1     139.260  98.548 128.019  0.00  0.00    -0.022 A 
ATOM     25  C3  T10     1     139.864  99.681 128.593  0.00  0.00    +0.006 A 
ATOM     26  C4  T10     1     140.192  99.694 129.959  0.00  0.00    +0.007 A 
ATOM     27  C5  T10     1     139.922  98.572 130.764  0.00  0.00    -0.010 A 
ATOM     28  C24 T10     1     139.317  97.440 130.190  0.00  0.00    +0.007 A 
ATOM     29  C25 T10     1     138.989  97.427 128.824  0.00  0.00    +0.006 A 
BRANCH  24  30
ATOM     30  C1  T10     1     138.904  98.536 126.541  0.00  0.00    +0.191 C 
BRANCH  30  31
ATOM     31  O1  T10     1     138.249  99.748 126.177  0.00  0.00    -0.390 OA
ATOM     32  H1  T10     1     138.193  99.777 125.205  0.00  0.00    +0.210 HD
ENDBRANCH  30  31
ENDBRANCH  24  30
ENDBRANCH  23  27
ENDBRANCH  22  23
ENDBRANCH   1  22
TORSDOF 6
ENDMDL
MODEL 4
REMARK VINA RESULT:    -8.532      3.271      8.052
REMARK INTER + INTRA:         -12.468
REMARK INTER:                 -11.770
REMARK INTRA:                  -0.698
REMARK UNBOUND:                -1.192
REMARK  Name = ligands_pdb/TRN_CHEMBL179737.pdb
REMARK  6 active torsions:
REMARK  status: ('A' for Active; 'I' for Inactive)
REMARK    1  A    between atoms: O1_1  and  C1_2
REMARK    2  A    between atoms: C1_2  and  C2_3
REMARK    3  A    between atoms: C5_6  and  C6_7
REMARK    4  A    between atoms: C6_7  and  O2_8
REMARK    5  A    between atoms: O2_8  and  C7_9
REMARK    6  A    between atoms: C8_12  and  C9_13
REMARK                            x       y       z     vdW  Elec       q    Type
REMARK                         _______ _______ _______ _____ _____    ______ ____
ROOT
ATOM      1  C7  T10     1     144.426  96.591 134.157  0.00  0.00    +0.237 A 
ATOM      2  N1  T10     1     145.318  95.800 133.509  0.00  0.00    -0.125 NA
ATOM      3  N2  T10     1     145.350  95.855 132.153  0.00  0.00    -0.189 N 
ATOM      4  C8  T10     1     146.076  95.171 131.201  0.00  0.00    +0.185 A 
ATOM      5  N3  T10     1     145.641  95.564 129.998  0.00  0.00    -0.127 NA
ATOM      6  N4  T10     1     144.728  96.435 130.129  0.00  0.00    -0.127 NA
ATOM      7  C15 T10     1     144.527  96.626 131.396  0.00  0.00    +0.182 A 
ATOM      8  C16 T10     1     143.587  97.446 132.032  0.00  0.00    +0.010 A 
ATOM      9  C17 T10     1     143.545  97.431 133.436  0.00  0.00    +0.026 A 
ATOM     10  C18 T10     1     142.483  98.357 134.028  0.00  0.00    +0.025 C 
ATOM     11  C19 T10     1     141.115  97.913 133.433  0.00  0.00    +0.009 C 
ATOM     12  C20 T10     1     141.165  97.921 131.870  0.00  0.00    +0.009 C 
ATOM     13  C21 T10     1     142.570  98.372 131.373  0.00  0.00    +0.023 C 
ATOM     14  C22 T10     1     142.833  99.799 131.935  0.00  0.00    +0.009 C 
ATOM     15  C23 T10     1     142.784  99.789 133.499  0.00  0.00    +0.009 C 
ENDROOT
BRANCH   4  16
ATOM     16  C9  T10     1     147.119  94.162 131.427  0.00  0.00    +0.021 A 
ATOM     17  C10 T10     1     146.947  92.851 130.936  0.00  0.00    +0.011 A 
ATOM     18  C11 T10     1     147.936  91.875 131.140  0.00  0.00    +0.001 A 
ATOM     19  C12 T10     1     149.113  92.199 131.832  0.00  0.00    +0.000 A 
ATOM     20  C13 T10     1     149.300  93.503 132.316  0.00  0.00    +0.001 A 
ATOM     21  C14 T10     1     148.310  94.478 132.113  0.00  0.00    +0.011 A 
ENDBRANCH   4  16
BRANCH   1  22
ATOM     22  O2  T10     1     144.353  96.586 135.534  0.00  0.00    -0.470 OA
BRANCH  22  23
ATOM     23  C6  T10     1     143.223  96.035 136.234  0.00  0.00    +0.266 C 
BRANCH  23  27
ATOM     24  C2  T10     1     143.032  97.820 140.188  0.00  0.00    -0.022 A 
ATOM     25  C3  T10     1     143.964  98.287 139.243  0.00  0.00    +0.006 A 
ATOM     26  C4  T10     1     144.025  97.709 137.964  0.00  0.00    +0.007 A 
ATOM     27  C5  T10     1     143.154  96.661 137.616  0.00  0.00    -0.010 A 
ATOM     28  C24 T10     1     142.223  96.194 138.560  0.00  0.00    +0.007 A 
ATOM     29  C25 T10     1     142.162  96.771 139.840  0.00  0.00    +0.006 A 
BRANCH  24  30
ATOM     30  C1  T10     1     142.967  98.444 141.573  0.00  0.00    +0.191 C 
BRANCH  30  31
ATOM     31  O1  T10     1     144.176  98.199 142.286  0.00  0.00    -0.390 OA
ATOM     32  H1  T10     1     144.100  97.327 142.712  0.00  0.00    +0.210 HD
ENDBRANCH  30  31
ENDBRANCH  24  30
ENDBRANCH  23  27
ENDBRANCH  22  23
ENDBRANCH   1  22
TORSDOF 6
ENDMDL
MODEL 5
REMARK VINA RESULT:    -8.148      2.942      5.597
REMARK INTER + INTRA:         -11.959
REMARK INTER:                 -10.723
REMARK INTRA:                  -1.237
REMARK UNBOUND:                -1.192
REMARK  Name = ligands_pdb/TRN_CHEMBL179737.pdb
REMARK  6 active torsions:
REMARK  status: ('A' for Active; 'I' for Inactive)
REMARK    1  A    between atoms: O1_1  and  C1_2
REMARK    2  A    between atoms: C1_2  and  C2_3
REMARK    3  A    between atoms: C5_6  and  C6_7
REMARK    4  A    between atoms: C6_7  and  O2_8
REMARK    5  A    between atoms: O2_8  and  C7_9
REMARK    6  A    between atoms: C8_12  and  C9_13
REMARK                            x       y       z     vdW  Elec       q    Type
REMARK                         _______ _______ _______ _____ _____    ______ ____
ROOT
ATOM      1  C7  T10     1     144.965  96.976 133.822  0.00  0.00    +0.237 A 
ATOM      2  N1  T10     1     144.397  97.008 135.054  0.00  0.00    -0.125 NA
ATOM      3  N2  T10     1     143.080  97.323 135.140  0.00  0.00    -0.189 N 
ATOM      4  C8  T10     1     142.221  97.490 136.205  0.00  0.00    +0.185 A 
ATOM      5  N3  T10     1     141.040  97.887 135.716  0.00  0.00    -0.127 NA
ATOM      6  N4  T10     1     141.096  97.960 134.451  0.00  0.00    -0.127 NA
ATOM      7  C15 T10     1     142.295  97.637 134.078  0.00  0.00    +0.182 A 
ATOM      8  C16 T10     1     142.851  97.624 132.792  0.00  0.00    +0.010 A 
ATOM      9  C17 T10     1     144.208  97.280 132.667  0.00  0.00    +0.026 A 
ATOM     10  C18 T10     1     144.714  97.300 131.225  0.00  0.00    +0.025 C 
ATOM     11  C19 T10     1     144.460  98.734 130.677  0.00  0.00    +0.009 C 
ATOM     12  C20 T10     1     142.952  99.121 130.826  0.00  0.00    +0.009 C 
ATOM     13  C21 T10     1     142.152  97.955 131.478  0.00  0.00    +0.023 C 
ATOM     14  C22 T10     1     142.308  96.708 130.561  0.00  0.00    +0.009 C 
ATOM     15  C23 T10     1     143.817  96.320 130.415  0.00  0.00    +0.009 C 
ENDROOT
BRANCH   4  16
ATOM     16  C9  T10     1     142.520  97.312 137.632  0.00  0.00    +0.021 A 
ATOM     17  C10 T10     1     143.672  97.906 138.188  0.00  0.00    +0.011 A 
ATOM     18  C11 T10     1     143.972  97.748 139.551  0.00  0.00    +0.001 A 
ATOM     19  C12 T10     1     143.120  96.999 140.376  0.00  0.00    +0.000 A 
ATOM     20  C13 T10     1     141.965  96.412 139.837  0.00  0.00    +0.001 A 
ATOM     21  C14 T10     1     141.667  96.569 138.473  0.00  0.00    +0.011 A 
ENDBRANCH   4  16
BRANCH   1  22
ATOM     22  O2  T10     1     146.298  96.655 133.670  0.00  0.00    -0.470 OA
BRANCH  22  23
ATOM     23  C6  T10     1     146.730  95.308 133.405  0.00  0.00    +0.266 C 
BRANCH  23  27
ATOM     24  C2  T10     1     148.199  95.089 129.324  0.00  0.00    -0.022 A 
ATOM     25  C3  T10     1     147.227  94.178 129.778  0.00  0.00    +0.006 A 
ATOM     26  C4  T10     1     146.752  94.250 131.099  0.00  0.00    +0.007 A 
ATOM     27  C5  T10     1     147.242  95.233 131.977  0.00  0.00    -0.010 A 
ATOM     28  C24 T10     1     148.213  96.143 131.523  0.00  0.00    +0.007 A 
ATOM     29  C25 T10     1     148.689  96.072 130.203  0.00  0.00    +0.006 A 
BRANCH  24  30
ATOM     30  C1  T10     1     148.713  95.010 127.896  0.00  0.00    +0.191 C 
BRANCH  30  31
ATOM     31  O1  T10     1     149.093  96.304 127.432  0.00  0.00    -0.390 OA
ATOM     32  H1  T10     1     148.444  96.945 127.771  0.00  0.00    +0.210 HD
ENDBRANCH  30  31
ENDBRANCH  24  30
ENDBRANCH  23  27
ENDBRANCH  22  23
ENDBRANCH   1  22
TORSDOF 6
ENDMDL
MODEL 6
REMARK VINA RESULT:    -8.082      3.814      8.087
REMARK INTER + INTRA:         -11.872
REMARK INTER:                 -10.535
REMARK INTRA:                  -1.338
REMARK UNBOUND:                -1.192
REMARK  Name = ligands_pdb/TRN_CHEMBL179737.pdb
REMARK  6 active torsions:
REMARK  status: ('A' for Active; 'I' for Inactive)
REMARK    1  A    between atoms: O1_1  and  C1_2
REMARK    2  A    between atoms: C1_2  and  C2_3
REMARK    3  A    between atoms: C5_6  and  C6_7
REMARK    4  A    between atoms: C6_7  and  O2_8
REMARK    5  A    between atoms: O2_8  and  C7_9
REMARK    6  A    between atoms: C8_12  and  C9_13
REMARK                            x       y       z     vdW  Elec       q    Type
REMARK                         _______ _______ _______ _____ _____    ______ ____
ROOT
ATOM      1  C7  T10     1     140.900  96.435 131.655  0.00  0.00    +0.237 A 
ATOM      2  N1  T10     1     140.304  96.544 130.440  0.00  0.00    -0.125 NA
ATOM      3  N2  T10     1     139.986  97.786 129.996  0.00  0.00    -0.189 N 
ATOM      4  C8  T10     1     139.347  98.245 128.864  0.00  0.00    +0.185 A 
ATOM      5  N3  T10     1     139.221  99.573 128.978  0.00  0.00    -0.127 NA
ATOM      6  N4  T10     1     139.739  99.966 130.067  0.00  0.00    -0.127 NA
ATOM      7  C15 T10     1     140.197  98.929 130.697  0.00  0.00    +0.182 A 
ATOM      8  C16 T10     1     140.801  98.853 131.958  0.00  0.00    +0.010 A 
ATOM      9  C17 T10     1     141.163  97.583 132.438  0.00  0.00    +0.026 A 
ATOM     10  C18 T10     1     141.810  97.611 133.823  0.00  0.00    +0.025 C 
ATOM     11  C19 T10     1     140.789  98.289 134.783  0.00  0.00    +0.009 C 
ATOM     12  C20 T10     1     140.378  99.698 134.244  0.00  0.00    +0.009 C 
ATOM     13  C21 T10     1     141.113 100.006 132.907  0.00  0.00    +0.023 C 
ATOM     14  C22 T10     1     142.643  99.953 133.187  0.00  0.00    +0.009 C 
ATOM     15  C23 T10     1     143.053  98.542 133.724  0.00  0.00    +0.009 C 
ENDROOT
BRANCH   4  16
ATOM     16  C9  T10     1     138.848  97.450 127.735  0.00  0.00    +0.021 A 
ATOM     17  C10 T10     1     139.475  97.547 126.475  0.00  0.00    +0.011 A 
ATOM     18  C11 T10     1     139.012  96.791 125.385  0.00  0.00    +0.001 A 
ATOM     19  C12 T10     1     137.921  95.924 125.543  0.00  0.00    +0.000 A 
ATOM     20  C13 T10     1     137.295  95.811 126.794  0.00  0.00    +0.001 A 
ATOM     21  C14 T10     1     137.757  96.568 127.883  0.00  0.00    +0.011 A 
ENDBRANCH   4  16
BRANCH   1  22
ATOM     22  O2  T10     1     141.254  95.200 132.155  0.00  0.00    -0.470 OA
BRANCH  22  23
ATOM     23  C6  T10     1     142.054  94.273 131.399  0.00  0.00    +0.266 C 
BRANCH  23  27
ATOM     24  C2  T10     1     145.477  96.396 129.777  0.00  0.00    -0.022 A 
ATOM     25  C3  T10     1     145.272  96.338 131.168  0.00  0.00    +0.006 A 
ATOM     26  C4  T10     1     144.164  95.650 131.692  0.00  0.00    +0.007 A 
ATOM     27  C5  T10     1     143.252  95.013 130.832  0.00  0.00    -0.010 A 
ATOM     28  C24 T10     1     143.456  95.072 129.443  0.00  0.00    +0.007 A 
ATOM     29  C25 T10     1     144.563  95.759 128.917  0.00  0.00    +0.006 A 
BRANCH  24  30
ATOM     30  C1  T10     1     146.674  97.141 129.210  0.00  0.00    +0.191 C 
BRANCH  30  31
ATOM     31  O1  T10     1     147.725  97.200 130.172  0.00  0.00    -0.390 OA
ATOM     32  H1  T10     1     148.335  97.909 129.904  0.00  0.00    +0.210 HD
ENDBRANCH  30  31
ENDBRANCH  24  30
ENDBRANCH  23  27
ENDBRANCH  22  23
ENDBRANCH   1  22
TORSDOF 6
ENDMDL
MODEL 7
REMARK VINA RESULT:    -8.017      4.119      8.884
REMARK INTER + INTRA:         -11.787
REMARK INTER:                 -10.043
REMARK INTRA:                  -1.745
REMARK UNBOUND:                -1.192
REMARK  Name = ligands_pdb/TRN_CHEMBL179737.pdb
REMARK  6 active torsions:
REMARK  status: ('A' for Active; 'I' for Inactive)
REMARK    1  A    between atoms: O1_1  and  C1_2
REMARK    2  A    between atoms: C1_2  and  C2_3
REMARK    3  A    between atoms: C5_6  and  C6_7
REMARK    4  A    between atoms: C6_7  and  O2_8
REMARK    5  A    between atoms: O2_8  and  C7_9
REMARK    6  A    between atoms: C8_12  and  C9_13
REMARK                            x       y       z     vdW  Elec       q    Type
REMARK                         _______ _______ _______ _____ _____    ______ ____
ROOT
ATOM      1  C7  T10     1     140.495  96.692 130.490  0.00  0.00    +0.237 A 
ATOM      2  N1  T10     1     140.180  96.274 129.237  0.00  0.00    -0.125 NA
ATOM      3  N2  T10     1     140.347  97.149 128.213  0.00  0.00    -0.189 N 
ATOM      4  C8  T10     1     140.087  97.075 126.861  0.00  0.00    +0.185 A 
ATOM      5  N3  T10     1     140.364  98.271 126.328  0.00  0.00    -0.127 NA
ATOM      6  N4  T10     1     140.784  99.061 127.227  0.00  0.00    -0.127 NA
ATOM      7  C15 T10     1     140.781  98.427 128.359  0.00  0.00    +0.182 A 
ATOM      8  C16 T10     1     141.105  98.895 129.639  0.00  0.00    +0.010 A 
ATOM      9  C17 T10     1     140.965  98.006 130.718  0.00  0.00    +0.026 A 
ATOM     10  C18 T10     1     141.341  98.617 132.068  0.00  0.00    +0.025 C 
ATOM     11  C19 T10     1     140.434  99.866 132.266  0.00  0.00    +0.009 C 
ATOM     12  C20 T10     1     140.582 100.851 131.060  0.00  0.00    +0.009 C 
ATOM     13  C21 T10     1     141.594 100.288 130.019  0.00  0.00    +0.023 C 
ATOM     14  C22 T10     1     142.959 100.102 130.743  0.00  0.00    +0.009 C 
ATOM     15  C23 T10     1     142.810  99.115 131.947  0.00  0.00    +0.009 C 
ENDROOT
BRANCH   4  16
ATOM     16  C9  T10     1     139.566  95.924 126.113  0.00  0.00    +0.021 A 
ATOM     17  C10 T10     1     140.459  95.021 125.500  0.00  0.00    +0.011 A 
ATOM     18  C11 T10     1     139.978  93.913 124.783  0.00  0.00    +0.001 A 
ATOM     19  C12 T10     1     138.597  93.692 124.675  0.00  0.00    +0.000 A 
ATOM     20  C13 T10     1     137.698  94.577 125.289  0.00  0.00    +0.001 A 
ATOM     21  C14 T10     1     138.180  95.685 126.004  0.00  0.00    +0.011 A 
ENDBRANCH   4  16
BRANCH   1  22
ATOM     22  O2  T10     1     140.355  95.845 131.569  0.00  0.00    -0.470 OA
BRANCH  22  23
ATOM     23  C6  T10     1     141.291  94.785 131.831  0.00  0.00    +0.266 C 
BRANCH  23  27
ATOM     24  C2  T10     1     144.712  96.428 133.942  0.00  0.00    -0.022 A 
ATOM     25  C3  T10     1     144.830  96.038 132.595  0.00  0.00    +0.006 A 
ATOM     26  C4  T10     1     143.722  95.507 131.913  0.00  0.00    +0.007 A 
ATOM     27  C5  T10     1     142.487  95.362 132.568  0.00  0.00    -0.010 A 
ATOM     28  C24 T10     1     142.370  95.750 133.914  0.00  0.00    +0.007 A 
ATOM     29  C25 T10     1     143.476  96.282 134.598  0.00  0.00    +0.006 A 
BRANCH  24  30
ATOM     30  C1  T10     1     145.910  97.001 134.681  0.00  0.00    +0.191 C 
BRANCH  30  31
ATOM     31  O1  T10     1     147.097  96.295 134.327  0.00  0.00    -0.390 OA
ATOM     32  H1  T10     1     146.837  95.407 134.025  0.00  0.00    +0.210 HD
ENDBRANCH  30  31
ENDBRANCH  24  30
ENDBRANCH  23  27
ENDBRANCH  22  23
ENDBRANCH   1  22
TORSDOF 6
ENDMDL
MODEL 8
REMARK VINA RESULT:    -7.959      1.917      2.695
REMARK INTER + INTRA:         -11.710
REMARK INTER:                 -10.333
REMARK INTRA:                  -1.377
REMARK UNBOUND:                -1.192
REMARK  Name = ligands_pdb/TRN_CHEMBL179737.pdb
REMARK  6 active torsions:
REMARK  status: ('A' for Active; 'I' for Inactive)
REMARK    1  A    between atoms: O1_1  and  C1_2
REMARK    2  A    between atoms: C1_2  and  C2_3
REMARK    3  A    between atoms: C5_6  and  C6_7
REMARK    4  A    between atoms: C6_7  and  O2_8
REMARK    5  A    between atoms: O2_8  and  C7_9
REMARK    6  A    between atoms: C8_12  and  C9_13
REMARK                            x       y       z     vdW  Elec       q    Type
REMARK                         _______ _______ _______ _____ _____    ______ ____
ROOT
ATOM      1  C7  T10     1     143.106  95.507 131.611  0.00  0.00    +0.237 A 
ATOM      2  N1  T10     1     143.092  95.812 132.934  0.00  0.00    -0.125 NA
ATOM      3  N2  T10     1     144.268  96.145 133.523  0.00  0.00    -0.189 N 
ATOM      4  C8  T10     1     144.615  96.454 134.821  0.00  0.00    +0.185 A 
ATOM      5  N3  T10     1     145.943  96.618 134.859  0.00  0.00    -0.127 NA
ATOM      6  N4  T10     1     146.434  96.453 133.701  0.00  0.00    -0.127 NA
ATOM      7  C15 T10     1     145.467  96.165 132.886  0.00  0.00    +0.182 A 
ATOM      8  C16 T10     1     145.520  95.846 131.524  0.00  0.00    +0.010 A 
ATOM      9  C17 T10     1     144.315  95.519 130.878  0.00  0.00    +0.026 A 
ATOM     10  C18 T10     1     144.485  95.184 129.396  0.00  0.00    +0.025 C 
ATOM     11  C19 T10     1     145.490  93.999 129.314  0.00  0.00    +0.009 C 
ATOM     12  C20 T10     1     146.827  94.359 130.041  0.00  0.00    +0.009 C 
ATOM     13  C21 T10     1     146.756  95.798 130.631  0.00  0.00    +0.023 C 
ATOM     14  C22 T10     1     146.494  96.778 129.451  0.00  0.00    +0.009 C 
ATOM     15  C23 T10     1     145.155  96.418 128.726  0.00  0.00    +0.009 C 
ENDROOT
BRANCH   4  16
ATOM     16  C9  T10     1     143.725  96.558 135.984  0.00  0.00    +0.021 A 
ATOM     17  C10 T10     1     142.583  97.384 135.924  0.00  0.00    +0.011 A 
ATOM     18  C11 T10     1     141.719  97.493 137.026  0.00  0.00    +0.001 A 
ATOM     19  C12 T10     1     141.982  96.771 138.200  0.00  0.00    +0.000 A 
ATOM     20  C13 T10     1     143.109  95.938 138.269  0.00  0.00    +0.001 A 
ATOM     21  C14 T10     1     143.974  95.831 137.167  0.00  0.00    +0.011 A 
ENDBRANCH   4  16
BRANCH   1  22
ATOM     22  O2  T10     1     141.941  95.170 130.956  0.00  0.00    -0.470 OA
BRANCH  22  23
ATOM     23  C6  T10     1     140.746  95.965 131.068  0.00  0.00    +0.266 C 
BRANCH  23  27
ATOM     24  C2  T10     1     141.301  99.645 128.830  0.00  0.00    -0.022 A 
ATOM     25  C3  T10     1     140.766  99.679 130.131  0.00  0.00    +0.006 A 
ATOM     26  C4  T10     1     140.587  98.488 130.855  0.00  0.00    +0.007 A 
ATOM     27  C5  T10     1     140.943  97.252 130.287  0.00  0.00    -0.010 A 
ATOM     28  C24 T10     1     141.477  97.218 128.986  0.00  0.00    +0.007 A 
ATOM     29  C25 T10     1     141.656  98.408 128.262  0.00  0.00    +0.006 A 
BRANCH  24  30
ATOM     30  C1  T10     1     141.493 100.933 128.047  0.00  0.00    +0.191 C 
BRANCH  30  31
ATOM     31  O1  T10     1     142.741 100.916 127.358  0.00  0.00    -0.390 OA
ATOM     32  H1  T10     1     143.249 100.150 127.680  0.00  0.00    +0.210 HD
ENDBRANCH  30  31
ENDBRANCH  24  30
ENDBRANCH  23  27
ENDBRANCH  22  23
ENDBRANCH   1  22
TORSDOF 6
ENDMDL
MODEL 9
REMARK VINA RESULT:    -7.806      3.530      8.075
REMARK INTER + INTRA:         -11.508
REMARK INTER:                 -10.251
REMARK INTRA:                  -1.257
REMARK UNBOUND:                -1.192
REMARK  Name = ligands_pdb/TRN_CHEMBL179737.pdb
REMARK  6 active torsions:
REMARK  status: ('A' for Active; 'I' for Inactive)
REMARK    1  A    between atoms: O1_1  and  C1_2
REMARK    2  A    between atoms: C1_2  and  C2_3
REMARK    3  A    between atoms: C5_6  and  C6_7
REMARK    4  A    between atoms: C6_7  and  O2_8
REMARK    5  A    between atoms: O2_8  and  C7_9
REMARK    6  A    between atoms: C8_12  and  C9_13
REMARK                            x       y       z     vdW  Elec       q    Type
REMARK                         _______ _______ _______ _____ _____    ______ ____
ROOT
ATOM      1  C7  T10     1     142.750  98.483 129.458  0.00  0.00    +0.237 A 
ATOM      2  N1  T10     1     141.619  98.265 128.740  0.00  0.00    -0.125 NA
ATOM      3  N2  T10     1     141.512  97.096 128.059  0.00  0.00    -0.189 N 
ATOM      4  C8  T10     1     140.551  96.584 127.214  0.00  0.00    +0.185 A 
ATOM      5  N3  T10     1     141.001  95.412 126.749  0.00  0.00    -0.127 NA
ATOM      6  N4  T10     1     142.139  95.156 127.246  0.00  0.00    -0.127 NA
ATOM      7  C15 T10     1     142.474  96.138 128.024  0.00  0.00    +0.182 A 
ATOM      8  C16 T10     1     143.658  96.334 128.746  0.00  0.00    +0.010 A 
ATOM      9  C17 T10     1     143.790  97.526 129.480  0.00  0.00    +0.026 A 
ATOM     10  C18 T10     1     145.119  97.641 130.226  0.00  0.00    +0.025 C 
ATOM     11  C19 T10     1     146.247  97.526 129.160  0.00  0.00    +0.009 C 
ATOM     12  C20 T10     1     146.094  96.206 128.337  0.00  0.00    +0.009 C 
ATOM     13  C21 T10     1     144.858  95.397 128.829  0.00  0.00    +0.023 C 
ATOM     14  C22 T10     1     145.074  95.079 130.337  0.00  0.00    +0.009 C 
ATOM     15  C23 T10     1     145.224  96.401 131.160  0.00  0.00    +0.009 C 
ENDROOT
BRANCH   4  16
ATOM     16  C9  T10     1     139.272  97.199 126.838  0.00  0.00    +0.021 A 
ATOM     17  C10 T10     1     138.086  96.436 126.878  0.00  0.00    +0.011 A 
ATOM     18  C11 T10     1     136.854  97.009 126.524  0.00  0.00    +0.001 A 
ATOM     19  C12 T10     1     136.790  98.355 126.134  0.00  0.00    +0.000 A 
ATOM     20  C13 T10     1     137.961  99.128 126.100  0.00  0.00    +0.001 A 
ATOM     21  C14 T10     1     139.193  98.554 126.452  0.00  0.00    +0.011 A 
ENDBRANCH   4  16
BRANCH   1  22
ATOM     22  O2  T10     1     142.912  99.649 130.176  0.00  0.00    -0.470 OA
BRANCH  22  23
ATOM     23  C6  T10     1     141.911 100.122 131.096  0.00  0.00    +0.266 C 
BRANCH  23  27
ATOM     24  C2  T10     1     142.305  97.945 134.832  0.00  0.00    -0.022 A 
ATOM     25  C3  T10     1     141.030  98.246 134.318  0.00  0.00    +0.006 A 
ATOM     26  C4  T10     1     140.904  98.950 133.108  0.00  0.00    +0.007 A 
ATOM     27  C5  T10     1     142.049  99.358 132.401  0.00  0.00    -0.010 A 
ATOM     28  C24 T10     1     143.322  99.058 132.916  0.00  0.00    +0.007 A 
ATOM     29  C25 T10     1     143.450  98.354 134.125  0.00  0.00    +0.006 A 
BRANCH  24  30
ATOM     30  C1  T10     1     142.441  97.184 136.141  0.00  0.00    +0.191 C 
BRANCH  30  31
ATOM     31  O1  T10     1     143.277  96.042 135.968  0.00  0.00    -0.390 OA
ATOM     32  H1  T10     1     144.192  96.355 135.860  0.00  0.00    +0.210 HD
ENDBRANCH  30  31
ENDBRANCH  24  30
ENDBRANCH  23  27
ENDBRANCH  22  23
ENDBRANCH   1  22
TORSDOF 6
ENDMDL
MODEL 10
REMARK VINA RESULT:    -7.729      3.735      8.423
REMARK INTER + INTRA:         -11.406
REMARK INTER:                 -10.158
REMARK INTRA:                  -1.248
REMARK UNBOUND:                -1.192
REMARK  Name = ligands_pdb/TRN_CHEMBL179737.pdb
REMARK  6 active torsions:
REMARK  status: ('A' for Active; 'I' for Inactive)
REMARK    1  A    between atoms: O1_1  and  C1_2
REMARK    2  A    between atoms: C1_2  and  C2_3
REMARK    3  A    between atoms: C5_6  and  C6_7
REMARK    4  A    between atoms: C6_7  and  O2_8
REMARK    5  A    between atoms: O2_8  and  C7_9
REMARK    6  A    between atoms: C8_12  and  C9_13
REMARK                            x       y       z     vdW  Elec       q    Type
REMARK                         _______ _______ _______ _____ _____    ______ ____
ROOT
ATOM      1  C7  T10     1     141.932  96.302 131.153  0.00  0.00    +0.237 A 
ATOM      2  N1  T10     1     141.166  96.478 130.046  0.00  0.00    -0.125 NA
ATOM      3  N2  T10     1     140.498  97.652 129.913  0.00  0.00    -0.189 N 
ATOM      4  C8  T10     1     139.618  98.130 128.966  0.00  0.00    +0.185 A 
ATOM      5  N3  T10     1     139.190  99.330 129.379  0.00  0.00    -0.127 NA
ATOM      6  N4  T10     1     139.741  99.632 130.481  0.00  0.00    -0.127 NA
ATOM      7  C15 T10     1     140.519  98.655 130.828  0.00  0.00    +0.182 A 
ATOM      8  C16 T10     1     141.290  98.503 131.987  0.00  0.00    +0.010 A 
ATOM      9  C17 T10     1     142.013  97.308 132.144  0.00  0.00    +0.026 A 
ATOM     10  C18 T10     1     142.816  97.244 133.443  0.00  0.00    +0.025 C 
ATOM     11  C19 T10     1     141.804  97.430 134.610  0.00  0.00    +0.009 C 
ATOM     12  C20 T10     1     140.993  98.754 134.430  0.00  0.00    +0.009 C 
ATOM     13  C21 T10     1     141.440  99.495 133.136  0.00  0.00    +0.023 C 
ATOM     14  C22 T10     1     142.960  99.799 133.269  0.00  0.00    +0.009 C 
ATOM     15  C23 T10     1     143.771  98.473 133.447  0.00  0.00    +0.009 C 
ENDROOT
BRANCH   4  16
ATOM     16  C9  T10     1     139.177  97.461 127.736  0.00  0.00    +0.021 A 
ATOM     17  C10 T10     1     139.876  97.674 126.530  0.00  0.00    +0.011 A 
ATOM     18  C11 T10     1     139.470  97.040 125.345  0.00  0.00    +0.001 A 
ATOM     19  C12 T10     1     138.363  96.179 125.352  0.00  0.00    +0.000 A 
ATOM     20  C13 T10     1     137.665  95.950 126.548  0.00  0.00    +0.001 A 
ATOM     21  C14 T10     1     138.070  96.586 127.732  0.00  0.00    +0.011 A 
ENDBRANCH   4  16
BRANCH   1  22
ATOM     22  O2  T10     1     142.641  95.135 131.340  0.00  0.00    -0.470 OA
BRANCH  22  23
ATOM     23  C6  T10     1     143.365  94.504 130.268  0.00  0.00    +0.266 C 
BRANCH  23  27
ATOM     24  C2  T10     1     147.534  95.694 130.512  0.00  0.00    -0.022 A 
ATOM     25  C3  T10     1     146.977  95.310 129.279  0.00  0.00    +0.006 A 
ATOM     26  C4  T10     1     145.628  94.925 129.200  0.00  0.00    +0.007 A 
ATOM     27  C5  T10     1     144.822  94.923 130.353  0.00  0.00    -0.010 A 
ATOM     28  C24 T10     1     145.379  95.306 131.586  0.00  0.00    +0.007 A 
ATOM     29  C25 T10     1     146.728  95.691 131.665  0.00  0.00    +0.006 A 
BRANCH  24  30
ATOM     30  C1  T10     1     148.994  96.109 130.597  0.00  0.00    +0.191 C 
BRANCH  30  31
ATOM     31  O1  T10     1     149.109  97.529 130.592  0.00  0.00    -0.390 OA
ATOM     32  H1  T10     1     148.283  97.894 130.228  0.00  0.00    +0.210 HD
ENDBRANCH  30  31
ENDBRANCH  24  30
ENDBRANCH  23  27
ENDBRANCH  22  23
ENDBRANCH   1  22
TORSDOF 6
ENDMDL
