MODEL 1
REMARK VINA RESULT:    -9.367      0.000      0.000
REMARK INTER + INTRA:         -12.416
REMARK INTER:                 -11.557
REMARK INTRA:                  -0.859
REMARK UNBOUND:                -0.859
REMARK  Name = ligands_pdb/TRN_CHEMBL50581.pdb
REMARK  4 active torsions:
REMARK  status: ('A' for Active; 'I' for Inactive)
REMARK    1  A    between atoms: C4_4  and  C5_5
REMARK    2  A    between atoms: C5_5  and  O1_6
REMARK    3  A    between atoms: O1_6  and  C6_7
REMARK    4  A    between atoms: C7_10  and  C8_11
REMARK                            x       y       z     vdW  Elec       q    Type
REMARK                         _______ _______ _______ _____ _____    ______ ____
ROOT
ATOM      1  C6  T20     1     142.925  96.715 134.510  0.00  0.00    +0.241 A 
ATOM      2  N1  T20     1     143.963  96.218 133.796  0.00  0.00    -0.125 NA
ATOM      3  N2  T20     1     144.291  96.856 132.650  0.00  0.00    -0.189 N 
ATOM      4  C7  T20     1     145.233  96.636 131.678  0.00  0.00    +0.185 A 
ATOM      5  N3  T20     1     145.115  97.562 130.653  0.00  0.00    -0.127 NA
ATOM      6  N4  T20     1     144.125  98.378 130.942  0.00  0.00    -0.127 NA
ATOM      7  C14 T20     1     143.651  97.937 132.130  0.00  0.00    +0.186 A 
ATOM      8  C15 T20     1     142.567  98.478 132.851  0.00  0.00    +0.033 A 
ATOM      9  C16 T20     1     141.854  99.602 132.392  0.00  0.00    +0.012 A 
ATOM     10  C17 T20     1     140.780 100.109 133.142  0.00  0.00    +0.001 A 
ATOM     11  C18 T20     1     140.414  99.494 134.349  0.00  0.00    +0.001 A 
ATOM     12  C19 T20     1     141.120  98.371 134.813  0.00  0.00    +0.014 A 
ATOM     13  C20 T20     1     142.200  97.853 134.070  0.00  0.00    +0.049 A 
ENDROOT
BRANCH   4  14
ATOM     14  C8  T20     1     146.247  95.574 131.655  0.00  0.00    +0.021 A 
ATOM     15  C9  T20     1     146.117  94.492 130.759  0.00  0.00    +0.011 A 
ATOM     16  C10 T20     1     147.081  93.470 130.726  0.00  0.00    +0.001 A 
ATOM     17  C11 T20     1     148.190  93.521 131.583  0.00  0.00    +0.000 A 
ATOM     18  C12 T20     1     148.335  94.597 132.473  0.00  0.00    +0.001 A 
ATOM     19  C13 T20     1     147.370  95.617 132.507  0.00  0.00    +0.011 A 
ENDBRANCH   4  14
BRANCH   1  20
ATOM     20  O1  T20     1     142.557  96.105 135.694  0.00  0.00    -0.470 OA
BRANCH  20  21
ATOM     21  C5  T20     1     143.510  95.794 136.727  0.00  0.00    +0.266 C 
BRANCH  21  25
ATOM     22  C1  T20     1     142.304  97.806 140.373  0.00  0.00    +0.000 A 
ATOM     23  C2  T20     1     141.726  96.574 140.026  0.00  0.00    +0.000 A 
ATOM     24  C3  T20     1     142.117  95.922 138.844  0.00  0.00    +0.007 A 
ATOM     25  C4  T20     1     143.089  96.498 138.005  0.00  0.00    -0.010 A 
ATOM     26  C21 T20     1     143.663  97.733 138.357  0.00  0.00    +0.007 A 
ATOM     27  C22 T20     1     143.272  98.385 139.538  0.00  0.00    +0.000 A 
ENDBRANCH  21  25
ENDBRANCH  20  21
ENDBRANCH   1  20
TORSDOF 4
ENDMDL
MODEL 2
REMARK VINA RESULT:    -8.953      2.239      7.212
REMARK INTER + INTRA:         -11.906
REMARK INTER:                 -10.951
REMARK INTRA:                  -0.955
REMARK UNBOUND:                -0.859
REMARK  Name = ligands_pdb/TRN_CHEMBL50581.pdb
REMARK  4 active torsions:
REMARK  status: ('A' for Active; 'I' for Inactive)
REMARK    1  A    between atoms: C4_4  and  C5_5
REMARK    2  A    between atoms: C5_5  and  O1_6
REMARK    3  A    between atoms: O1_6  and  C6_7
REMARK    4  A    between atoms: C7_10  and  C8_11
REMARK                            x       y       z     vdW  Elec       q    Type
REMARK                         _______ _______ _______ _____ _____    ______ ____
ROOT
ATOM      1  C6  T20     1     141.919  97.354 133.220  0.00  0.00    +0.241 A 
ATOM      2  N1  T20     1     142.115  97.220 134.553  0.00  0.00    -0.125 NA
ATOM      3  N2  T20     1     143.324  96.772 134.962  0.00  0.00    -0.189 N 
ATOM      4  C7  T20     1     143.865  96.489 136.190  0.00  0.00    +0.185 A 
ATOM      5  N3  T20     1     145.150  95.985 136.061  0.00  0.00    -0.127 NA
ATOM      6  N4  T20     1     145.454  95.941 134.782  0.00  0.00    -0.127 NA
ATOM      7  C14 T20     1     144.353  96.410 134.151  0.00  0.00    +0.186 A 
ATOM      8  C15 T20     1     144.179  96.539 132.758  0.00  0.00    +0.033 A 
ATOM      9  C16 T20     1     145.196  96.197 131.845  0.00  0.00    +0.012 A 
ATOM     10  C17 T20     1     144.980  96.341 130.465  0.00  0.00    +0.001 A 
ATOM     11  C18 T20     1     143.750  96.823 129.993  0.00  0.00    +0.001 A 
ATOM     12  C19 T20     1     142.730  97.165 130.896  0.00  0.00    +0.014 A 
ATOM     13  C20 T20     1     142.934  97.025 132.285  0.00  0.00    +0.049 A 
ENDROOT
BRANCH   4  14
ATOM     14  C8  T20     1     143.222  96.659 137.499  0.00  0.00    +0.021 A 
ATOM     15  C9  T20     1     142.295  95.702 137.960  0.00  0.00    +0.011 A 
ATOM     16  C10 T20     1     141.673  95.851 139.212  0.00  0.00    +0.001 A 
ATOM     17  C11 T20     1     141.978  96.956 140.020  0.00  0.00    +0.000 A 
ATOM     18  C12 T20     1     142.906  97.911 139.576  0.00  0.00    +0.001 A 
ATOM     19  C13 T20     1     143.525  97.762 138.324  0.00  0.00    +0.011 A 
ENDBRANCH   4  14
BRANCH   1  20
ATOM     20  O1  T20     1     140.704  97.819 132.753  0.00  0.00    -0.470 OA
BRANCH  20  21
ATOM     21  C5  T20     1     140.437  99.221 132.570  0.00  0.00    +0.266 C 
BRANCH  21  25
ATOM     22  C1  T20     1     140.152 100.035 128.322  0.00  0.00    +0.000 A 
ATOM     23  C2  T20     1     139.339  99.050 128.905  0.00  0.00    +0.000 A 
ATOM     24  C3  T20     1     139.431  98.787 130.281  0.00  0.00    +0.007 A 
ATOM     25  C4  T20     1     140.336  99.508 131.082  0.00  0.00    -0.010 A 
ATOM     26  C21 T20     1     141.150 100.492 130.492  0.00  0.00    +0.007 A 
ATOM     27  C22 T20     1     141.059 100.756 129.116  0.00  0.00    +0.000 A 
ENDBRANCH  21  25
ENDBRANCH  20  21
ENDBRANCH   1  20
TORSDOF 4
ENDMDL
MODEL 3
REMARK VINA RESULT:    -8.560      1.901      5.196
REMARK INTER + INTRA:         -11.421
REMARK INTER:                 -10.839
REMARK INTRA:                  -0.581
REMARK UNBOUND:                -0.859
REMARK  Name = ligands_pdb/TRN_CHEMBL50581.pdb
REMARK  4 active torsions:
REMARK  status: ('A' for Active; 'I' for Inactive)
REMARK    1  A    between atoms: C4_4  and  C5_5
REMARK    2  A    between atoms: C5_5  and  O1_6
REMARK    3  A    between atoms: O1_6  and  C6_7
REMARK    4  A    between atoms: C7_10  and  C8_11
REMARK                            x       y       z     vdW  Elec       q    Type
REMARK                         _______ _______ _______ _____ _____    ______ ____
ROOT
ATOM      1  C6  T20     1     143.564  97.541 133.990  0.00  0.00    +0.241 A 
ATOM      2  N1  T20     1     142.788  98.085 133.024  0.00  0.00    -0.125 NA
ATOM      3  N2  T20     1     143.161  97.883 131.740  0.00  0.00    -0.189 N 
ATOM      4  C7  T20     1     142.658  98.291 130.530  0.00  0.00    +0.185 A 
ATOM      5  N3  T20     1     143.463  97.858 129.487  0.00  0.00    -0.127 NA
ATOM      6  N4  T20     1     144.468  97.177 129.992  0.00  0.00    -0.127 NA
ATOM      7  C14 T20     1     144.268  97.208 131.330  0.00  0.00    +0.186 A 
ATOM      8  C15 T20     1     145.096  96.630 132.313  0.00  0.00    +0.033 A 
ATOM      9  C16 T20     1     146.256  95.905 131.978  0.00  0.00    +0.012 A 
ATOM     10  C17 T20     1     147.053  95.345 132.990  0.00  0.00    +0.001 A 
ATOM     11  C18 T20     1     146.695  95.508 134.337  0.00  0.00    +0.001 A 
ATOM     12  C19 T20     1     145.541  96.231 134.680  0.00  0.00    +0.014 A 
ATOM     13  C20 T20     1     144.732  96.799 133.673  0.00  0.00    +0.049 A 
ENDROOT
BRANCH   4  14
ATOM     14  C8  T20     1     141.448  99.090 130.301  0.00  0.00    +0.021 A 
ATOM     15  C9  T20     1     140.201  98.453 130.137  0.00  0.00    +0.011 A 
ATOM     16  C10 T20     1     139.035  99.206 129.919  0.00  0.00    +0.001 A 
ATOM     17  C11 T20     1     139.102 100.606 129.869  0.00  0.00    +0.000 A 
ATOM     18  C12 T20     1     140.336 101.252 130.040  0.00  0.00    +0.001 A 
ATOM     19  C13 T20     1     141.501 100.499 130.256  0.00  0.00    +0.011 A 
ENDBRANCH   4  14
BRANCH   1  20
ATOM     20  O1  T20     1     143.220  97.710 135.318  0.00  0.00    -0.470 OA
BRANCH  20  21
ATOM     21  C5  T20     1     142.565  96.679 136.079  0.00  0.00    +0.266 C 
BRANCH  21  25
ATOM     22  C1  T20     1     143.006  97.574 140.298  0.00  0.00    +0.000 A 
ATOM     23  C2  T20     1     141.958  96.747 139.861  0.00  0.00    +0.000 A 
ATOM     24  C3  T20     1     141.816  96.458 138.493  0.00  0.00    +0.007 A 
ATOM     25  C4  T20     1     142.721  96.991 137.557  0.00  0.00    -0.010 A 
ATOM     26  C21 T20     1     143.767  97.820 138.001  0.00  0.00    +0.007 A 
ATOM     27  C22 T20     1     143.910  98.110 139.368  0.00  0.00    +0.000 A 
ENDBRANCH  21  25
ENDBRANCH  20  21
ENDBRANCH   1  20
TORSDOF 4
ENDMDL
MODEL 4
REMARK VINA RESULT:    -7.824      1.965      5.585
REMARK INTER + INTRA:         -10.512
REMARK INTER:                  -9.555
REMARK INTRA:                  -0.957
REMARK UNBOUND:                -0.859
REMARK  Name = ligands_pdb/TRN_CHEMBL50581.pdb
REMARK  4 active torsions:
REMARK  status: ('A' for Active; 'I' for Inactive)
REMARK    1  A    between atoms: C4_4  and  C5_5
REMARK    2  A    between atoms: C5_5  and  O1_6
REMARK    3  A    between atoms: O1_6  and  C6_7
REMARK    4  A    between atoms: C7_10  and  C8_11
REMARK                            x       y       z     vdW  Elec       q    Type
REMARK                         _______ _______ _______ _____ _____    ______ ____
ROOT
ATOM      1  C6  T20     1     142.129  97.580 134.330  0.00  0.00    +0.241 A 
ATOM      2  N1  T20     1     142.942  97.427 133.258  0.00  0.00    -0.125 NA
ATOM      3  N2  T20     1     144.162  96.887 133.475  0.00  0.00    -0.189 N 
ATOM      4  C7  T20     1     145.236  96.613 132.666  0.00  0.00    +0.185 A 
ATOM      5  N3  T20     1     146.296  96.107 133.403  0.00  0.00    -0.127 NA
ATOM      6  N4  T20     1     145.931  96.041 134.665  0.00  0.00    -0.127 NA
ATOM      7  C14 T20     1     144.663  96.511 134.682  0.00  0.00    +0.186 A 
ATOM      8  C15 T20     1     143.840  96.657 135.817  0.00  0.00    +0.033 A 
ATOM      9  C16 T20     1     144.274  96.285 137.104  0.00  0.00    +0.012 A 
ATOM     10  C17 T20     1     143.422  96.448 138.208  0.00  0.00    +0.001 A 
ATOM     11  C18 T20     1     142.137  96.984 138.031  0.00  0.00    +0.001 A 
ATOM     12  C19 T20     1     141.698  97.360 136.751  0.00  0.00    +0.014 A 
ATOM     13  C20 T20     1     142.544  97.201 135.634  0.00  0.00    +0.049 A 
ENDROOT
BRANCH   4  14
ATOM     14  C8  T20     1     145.324  96.819 131.215  0.00  0.00    +0.021 A 
ATOM     15  C9  T20     1     145.755  95.770 130.377  0.00  0.00    +0.011 A 
ATOM     16  C10 T20     1     145.842  95.953 128.986  0.00  0.00    +0.001 A 
ATOM     17  C11 T20     1     145.492  97.186 128.417  0.00  0.00    +0.000 A 
ATOM     18  C12 T20     1     145.054  98.236 129.240  0.00  0.00    +0.001 A 
ATOM     19  C13 T20     1     144.969  98.052 130.629  0.00  0.00    +0.011 A 
ENDBRANCH   4  14
BRANCH   1  20
ATOM     20  O1  T20     1     140.868  98.118 134.159  0.00  0.00    -0.470 OA
BRANCH  20  21
ATOM     21  C5  T20     1     140.657  99.405 133.551  0.00  0.00    +0.266 C 
BRANCH  21  25
ATOM     22  C1  T20     1     140.999  98.991 129.250  0.00  0.00    +0.000 A 
ATOM     23  C2  T20     1     141.778  99.943 129.928  0.00  0.00    +0.000 A 
ATOM     24  C3  T20     1     141.667 100.076 131.322  0.00  0.00    +0.007 A 
ATOM     25  C4  T20     1     140.779  99.258 132.045  0.00  0.00    -0.010 A 
ATOM     26  C21 T20     1     139.999  98.309 131.359  0.00  0.00    +0.007 A 
ATOM     27  C22 T20     1     140.109  98.175 129.965  0.00  0.00    +0.000 A 
ENDBRANCH  21  25
ENDBRANCH  20  21
ENDBRANCH   1  20
TORSDOF 4
ENDMDL
MODEL 5
REMARK VINA RESULT:    -7.719      5.552      7.275
REMARK INTER + INTRA:         -10.383
REMARK INTER:                  -9.325
REMARK INTRA:                  -1.058
REMARK UNBOUND:                -0.859
REMARK  Name = ligands_pdb/TRN_CHEMBL50581.pdb
REMARK  4 active torsions:
REMARK  status: ('A' for Active; 'I' for Inactive)
REMARK    1  A    between atoms: C4_4  and  C5_5
REMARK    2  A    between atoms: C5_5  and  O1_6
REMARK    3  A    between atoms: O1_6  and  C6_7
REMARK    4  A    between atoms: C7_10  and  C8_11
REMARK                            x       y       z     vdW  Elec       q    Type
REMARK                         _______ _______ _______ _____ _____    ______ ____
ROOT
ATOM      1  C6  T20     1     140.391  96.807 129.795  0.00  0.00    +0.241 A 
ATOM      2  N1  T20     1     140.093  96.511 128.508  0.00  0.00    -0.125 NA
ATOM      3  N2  T20     1     139.811  97.543 127.682  0.00  0.00    -0.189 N 
ATOM      4  C7  T20     1     139.445  97.630 126.363  0.00  0.00    +0.185 A 
ATOM      5  N3  T20     1     139.203  98.946 126.000  0.00  0.00    -0.127 NA
ATOM      6  N4  T20     1     139.409  99.711 127.050  0.00  0.00    -0.127 NA
ATOM      7  C14 T20     1     139.765  98.855 128.035  0.00  0.00    +0.186 A 
ATOM      8  C15 T20     1     140.072  99.196 129.368  0.00  0.00    +0.033 A 
ATOM      9  C16 T20     1     140.059 100.530 129.818  0.00  0.00    +0.012 A 
ATOM     10  C17 T20     1     140.370 100.825 131.155  0.00  0.00    +0.001 A 
ATOM     11  C18 T20     1     140.693  99.790 132.047  0.00  0.00    +0.001 A 
ATOM     12  C19 T20     1     140.705  98.456 131.606  0.00  0.00    +0.014 A 
ATOM     13  C20 T20     1     140.394  98.146 130.266  0.00  0.00    +0.049 A 
ENDROOT
BRANCH   4  14
ATOM     14  C8  T20     1     139.297  96.520 125.413  0.00  0.00    +0.021 A 
ATOM     15  C9  T20     1     140.266  96.314 124.409  0.00  0.00    +0.011 A 
ATOM     16  C10 T20     1     140.137  95.254 123.495  0.00  0.00    +0.001 A 
ATOM     17  C11 T20     1     139.040  94.384 123.578  0.00  0.00    +0.000 A 
ATOM     18  C12 T20     1     138.073  94.574 124.578  0.00  0.00    +0.001 A 
ATOM     19  C13 T20     1     138.202  95.634 125.490  0.00  0.00    +0.011 A 
ENDBRANCH   4  14
BRANCH   1  20
ATOM     20  O1  T20     1     140.698  95.788 130.677  0.00  0.00    -0.470 OA
BRANCH  20  21
ATOM     21  C5  T20     1     141.996  95.167 130.712  0.00  0.00    +0.266 C 
BRANCH  21  25
ATOM     22  C1  T20     1     144.208  96.744 134.090  0.00  0.00    +0.000 A 
ATOM     23  C2  T20     1     144.767  96.787 132.802  0.00  0.00    +0.000 A 
ATOM     24  C3  T20     1     144.049  96.276 131.708  0.00  0.00    +0.007 A 
ATOM     25  C4  T20     1     142.770  95.721 131.895  0.00  0.00    -0.010 A 
ATOM     26  C21 T20     1     142.217  95.679 133.188  0.00  0.00    +0.007 A 
ATOM     27  C22 T20     1     142.934  96.189 134.283  0.00  0.00    +0.000 A 
ENDBRANCH  21  25
ENDBRANCH  20  21
ENDBRANCH   1  20
TORSDOF 4
ENDMDL
MODEL 6
REMARK VINA RESULT:    -7.710      4.311      7.695
REMARK INTER + INTRA:         -10.372
REMARK INTER:                  -9.356
REMARK INTRA:                  -1.015
REMARK UNBOUND:                -0.859
REMARK  Name = ligands_pdb/TRN_CHEMBL50581.pdb
REMARK  4 active torsions:
REMARK  status: ('A' for Active; 'I' for Inactive)
REMARK    1  A    between atoms: C4_4  and  C5_5
REMARK    2  A    between atoms: C5_5  and  O1_6
REMARK    3  A    between atoms: O1_6  and  C6_7
REMARK    4  A    between atoms: C7_10  and  C8_11
REMARK                            x       y       z     vdW  Elec       q    Type
REMARK                         _______ _______ _______ _____ _____    ______ ____
ROOT
ATOM      1  C6  T20     1     141.927  98.571 129.835  0.00  0.00    +0.241 A 
ATOM      2  N1  T20     1     142.385  98.195 131.053  0.00  0.00    -0.125 NA
ATOM      3  N2  T20     1     141.882  98.836 132.132  0.00  0.00    -0.189 N 
ATOM      4  C7  T20     1     142.119  98.753 133.480  0.00  0.00    +0.185 A 
ATOM      5  N3  T20     1     141.373  99.693 134.174  0.00  0.00    -0.127 NA
ATOM      6  N4  T20     1     140.656 100.376 133.309  0.00  0.00    -0.127 NA
ATOM      7  C14 T20     1     140.978  99.851 132.104  0.00  0.00    +0.186 A 
ATOM      8  C15 T20     1     140.481 100.264 130.851  0.00  0.00    +0.033 A 
ATOM      9  C16 T20     1     139.535 101.300 130.731  0.00  0.00    +0.012 A 
ATOM     10  C17 T20     1     139.066 101.681 129.463  0.00  0.00    +0.001 A 
ATOM     11  C18 T20     1     139.542 101.031 128.313  0.00  0.00    +0.001 A 
ATOM     12  C19 T20     1     140.487  99.997 128.425  0.00  0.00    +0.014 A 
ATOM     13  C20 T20     1     140.966  99.606 129.693  0.00  0.00    +0.049 A 
ENDROOT
BRANCH   4  14
ATOM     14  C8  T20     1     143.036  97.829 134.161  0.00  0.00    +0.021 A 
ATOM     15  C9  T20     1     142.597  97.097 135.283  0.00  0.00    +0.011 A 
ATOM     16  C10 T20     1     143.463  96.208 135.942  0.00  0.00    +0.001 A 
ATOM     17  C11 T20     1     144.778  96.037 135.483  0.00  0.00    +0.000 A 
ATOM     18  C12 T20     1     145.224  96.754 134.361  0.00  0.00    +0.001 A 
ATOM     19  C13 T20     1     144.358  97.643 133.704  0.00  0.00    +0.011 A 
ENDBRANCH   4  14
BRANCH   1  20
ATOM     20  O1  T20     1     142.402  97.939 128.702  0.00  0.00    -0.470 OA
BRANCH  20  21
ATOM     21  C5  T20     1     141.956  96.629 128.309  0.00  0.00    +0.266 C 
BRANCH  21  25
ATOM     22  C1  T20     1     138.266  97.037 126.069  0.00  0.00    +0.000 A 
ATOM     23  C2  T20     1     139.501  97.236 125.431  0.00  0.00    +0.000 A 
ATOM     24  C3  T20     1     140.696  97.103 126.157  0.00  0.00    +0.007 A 
ATOM     25  C4  T20     1     140.663  96.770 127.524  0.00  0.00    -0.010 A 
ATOM     26  C21 T20     1     139.423  96.574 128.158  0.00  0.00    +0.007 A 
ATOM     27  C22 T20     1     138.227  96.706 127.433  0.00  0.00    +0.000 A 
ENDBRANCH  21  25
ENDBRANCH  20  21
ENDBRANCH   1  20
TORSDOF 4
ENDMDL
MODEL 7
REMARK VINA RESULT:    -7.709      2.579      7.057
REMARK INTER + INTRA:         -10.371
REMARK INTER:                  -9.467
REMARK INTRA:                  -0.904
REMARK UNBOUND:                -0.859
REMARK  Name = ligands_pdb/TRN_CHEMBL50581.pdb
REMARK  4 active torsions:
REMARK  status: ('A' for Active; 'I' for Inactive)
REMARK    1  A    between atoms: C4_4  and  C5_5
REMARK    2  A    between atoms: C5_5  and  O1_6
REMARK    3  A    between atoms: O1_6  and  C6_7
REMARK    4  A    between atoms: C7_10  and  C8_11
REMARK                            x       y       z     vdW  Elec       q    Type
REMARK                         _______ _______ _______ _____ _____    ______ ____
ROOT
ATOM      1  C6  T20     1     144.296  97.337 133.428  0.00  0.00    +0.241 A 
ATOM      2  N1  T20     1     143.536  98.057 132.569  0.00  0.00    -0.125 NA
ATOM      3  N2  T20     1     142.335  98.489 133.015  0.00  0.00    -0.189 N 
ATOM      4  C7  T20     1     141.309  99.196 132.442  0.00  0.00    +0.185 A 
ATOM      5  N3  T20     1     140.244  99.327 133.321  0.00  0.00    -0.127 NA
ATOM      6  N4  T20     1     140.560  98.727 134.448  0.00  0.00    -0.127 NA
ATOM      7  C14 T20     1     141.803  98.236 134.241  0.00  0.00    +0.186 A 
ATOM      8  C15 T20     1     142.571  97.489 135.157  0.00  0.00    +0.033 A 
ATOM      9  C16 T20     1     142.103  97.189 136.451  0.00  0.00    +0.012 A 
ATOM     10  C17 T20     1     142.900  96.441 137.332  0.00  0.00    +0.001 A 
ATOM     11  C18 T20     1     144.165  95.990 136.924  0.00  0.00    +0.001 A 
ATOM     12  C19 T20     1     144.639  96.283 135.634  0.00  0.00    +0.014 A 
ATOM     13  C20 T20     1     143.847  97.033 134.739  0.00  0.00    +0.049 A 
ENDROOT
BRANCH   4  14
ATOM     14  C8  T20     1     141.271  99.754 131.084  0.00  0.00    +0.021 A 
ATOM     15  C9  T20     1     142.176  99.293 130.105  0.00  0.00    +0.011 A 
ATOM     16  C10 T20     1     142.149  99.816 128.801  0.00  0.00    +0.001 A 
ATOM     17  C11 T20     1     141.212 100.802 128.459  0.00  0.00    +0.000 A 
ATOM     18  C12 T20     1     140.300 101.263 129.422  0.00  0.00    +0.001 A 
ATOM     19  C13 T20     1     140.329 100.740 130.726  0.00  0.00    +0.011 A 
ENDBRANCH   4  14
BRANCH   1  20
ATOM     20  O1  T20     1     145.537  96.883 133.024  0.00  0.00    -0.470 OA
BRANCH  20  21
ATOM     21  C5  T20     1     145.693  95.755 132.143  0.00  0.00    +0.266 C 
BRANCH  21  25
ATOM     22  C1  T20     1     144.505  96.930 128.143  0.00  0.00    +0.000 A 
ATOM     23  C2  T20     1     143.807  95.912 128.813  0.00  0.00    +0.000 A 
ATOM     24  C3  T20     1     144.193  95.532 130.109  0.00  0.00    +0.007 A 
ATOM     25  C4  T20     1     145.276  96.168 130.743  0.00  0.00    -0.010 A 
ATOM     26  C21 T20     1     145.972  97.186 130.066  0.00  0.00    +0.007 A 
ATOM     27  C22 T20     1     145.588  97.567 128.770  0.00  0.00    +0.000 A 
ENDBRANCH  21  25
ENDBRANCH  20  21
ENDBRANCH   1  20
TORSDOF 4
ENDMDL
MODEL 8
REMARK VINA RESULT:    -7.663      3.535      7.521
REMARK INTER + INTRA:         -10.314
REMARK INTER:                  -9.260
REMARK INTRA:                  -1.054
REMARK UNBOUND:                -0.859
REMARK  Name = ligands_pdb/TRN_CHEMBL50581.pdb
REMARK  4 active torsions:
REMARK  status: ('A' for Active; 'I' for Inactive)
REMARK    1  A    between atoms: C4_4  and  C5_5
REMARK    2  A    between atoms: C5_5  and  O1_6
REMARK    3  A    between atoms: O1_6  and  C6_7
REMARK    4  A    between atoms: C7_10  and  C8_11
REMARK                            x       y       z     vdW  Elec       q    Type
REMARK                         _______ _______ _______ _____ _____    ______ ____
ROOT
ATOM      1  C6  T20     1     141.792  96.176 130.723  0.00  0.00    +0.241 A 
ATOM      2  N1  T20     1     142.116  96.366 132.024  0.00  0.00    -0.125 NA
ATOM      3  N2  T20     1     143.405  96.659 132.307  0.00  0.00    -0.189 N 
ATOM      4  C7  T20     1     144.094  96.881 133.472  0.00  0.00    +0.185 A 
ATOM      5  N3  T20     1     145.442  97.083 133.221  0.00  0.00    -0.127 NA
ATOM      6  N4  T20     1     145.640  97.003 131.924  0.00  0.00    -0.127 NA
ATOM      7  C14 T20     1     144.418  96.748 131.403  0.00  0.00    +0.186 A 
ATOM      8  C15 T20     1     144.111  96.557 130.041  0.00  0.00    +0.033 A 
ATOM      9  C16 T20     1     145.096  96.641 129.037  0.00  0.00    +0.012 A 
ATOM     10  C17 T20     1     144.747  96.443 127.692  0.00  0.00    +0.001 A 
ATOM     11  C18 T20     1     143.417  96.159 127.344  0.00  0.00    +0.001 A 
ATOM     12  C19 T20     1     142.430  96.071 128.340  0.00  0.00    +0.014 A 
ATOM     13  C20 T20     1     142.767  96.268 129.695  0.00  0.00    +0.049 A 
ENDROOT
BRANCH   4  14
ATOM     14  C8  T20     1     143.543  96.900 134.833  0.00  0.00    +0.021 A 
ATOM     15  C9  T20     1     142.400  97.674 135.123  0.00  0.00    +0.011 A 
ATOM     16  C10 T20     1     141.862  97.699 136.421  0.00  0.00    +0.001 A 
ATOM     17  C11 T20     1     142.457  96.945 137.443  0.00  0.00    +0.000 A 
ATOM     18  C12 T20     1     143.590  96.164 137.165  0.00  0.00    +0.001 A 
ATOM     19  C13 T20     1     144.128  96.141 135.869  0.00  0.00    +0.011 A 
ENDBRANCH   4  14
BRANCH   1  20
ATOM     20  O1  T20     1     140.485  95.885 130.380  0.00  0.00    -0.470 OA
BRANCH  20  21
ATOM     21  C5  T20     1     139.412  96.823 130.580  0.00  0.00    +0.266 C 
BRANCH  21  25
ATOM     22  C1  T20     1     138.792  99.039 126.907  0.00  0.00    +0.000 A 
ATOM     23  C2  T20     1     139.090  99.722 128.097  0.00  0.00    +0.000 A 
ATOM     24  C3  T20     1     139.291  99.003 129.287  0.00  0.00    +0.007 A 
ATOM     25  C4  T20     1     139.196  97.599 129.293  0.00  0.00    -0.010 A 
ATOM     26  C21 T20     1     138.895  96.921 128.097  0.00  0.00    +0.007 A 
ATOM     27  C22 T20     1     138.693  97.639 126.907  0.00  0.00    +0.000 A 
ENDBRANCH  21  25
ENDBRANCH  20  21
ENDBRANCH   1  20
TORSDOF 4
ENDMDL
MODEL 9
REMARK VINA RESULT:    -7.619      3.114      6.825
REMARK INTER + INTRA:         -10.260
REMARK INTER:                  -9.239
REMARK INTRA:                  -1.021
REMARK UNBOUND:                -0.859
REMARK  Name = ligands_pdb/TRN_CHEMBL50581.pdb
REMARK  4 active torsions:
REMARK  status: ('A' for Active; 'I' for Inactive)
REMARK    1  A    between atoms: C4_4  and  C5_5
REMARK    2  A    between atoms: C5_5  and  O1_6
REMARK    3  A    between atoms: O1_6  and  C6_7
REMARK    4  A    between atoms: C7_10  and  C8_11
REMARK                            x       y       z     vdW  Elec       q    Type
REMARK                         _______ _______ _______ _____ _____    ______ ____
ROOT
ATOM      1  C6  T20     1     141.221  96.340 130.870  0.00  0.00    +0.241 A 
ATOM      2  N1  T20     1     141.623  96.522 132.150  0.00  0.00    -0.125 NA
ATOM      3  N2  T20     1     141.317  97.701 132.736  0.00  0.00    -0.189 N 
ATOM      4  C7  T20     1     141.575  98.243 133.970  0.00  0.00    +0.185 A 
ATOM      5  N3  T20     1     141.088  99.538 134.055  0.00  0.00    -0.127 NA
ATOM      6  N4  T20     1     140.517  99.844 132.911  0.00  0.00    -0.127 NA
ATOM      7  C14 T20     1     140.669  98.740 132.144  0.00  0.00    +0.186 A 
ATOM      8  C15 T20     1     140.237  98.580 130.812  0.00  0.00    +0.033 A 
ATOM      9  C16 T20     1     139.549  99.599 130.125  0.00  0.00    +0.012 A 
ATOM     10  C17 T20     1     139.137  99.399 128.798  0.00  0.00    +0.001 A 
ATOM     11  C18 T20     1     139.411  98.183 128.153  0.00  0.00    +0.001 A 
ATOM     12  C19 T20     1     140.098  97.162 128.830  0.00  0.00    +0.014 A 
ATOM     13  C20 T20     1     140.518  97.351 130.164  0.00  0.00    +0.049 A 
ENDROOT
BRANCH   4  14
ATOM     14  C8  T20     1     142.280  97.600 135.087  0.00  0.00    +0.021 A 
ATOM     15  C9  T20     1     141.700  97.584 136.372  0.00  0.00    +0.011 A 
ATOM     16  C10 T20     1     142.362  96.970 137.449  0.00  0.00    +0.001 A 
ATOM     17  C11 T20     1     143.609  96.360 137.252  0.00  0.00    +0.000 A 
ATOM     18  C12 T20     1     144.193  96.362 135.975  0.00  0.00    +0.001 A 
ATOM     19  C13 T20     1     143.531  96.977 134.900  0.00  0.00    +0.011 A 
ENDBRANCH   4  14
BRANCH   1  20
ATOM     20  O1  T20     1     141.500  95.148 130.230  0.00  0.00    -0.470 OA
BRANCH  20  21
ATOM     21  C5  T20     1     142.777  94.495 130.344  0.00  0.00    +0.266 C 
BRANCH  21  25
ATOM     22  C1  T20     1     145.850  97.168 128.858  0.00  0.00    +0.000 A 
ATOM     23  C2  T20     1     144.809  96.755 128.012  0.00  0.00    +0.000 A 
ATOM     24  C3  T20     1     143.814  95.888 128.494  0.00  0.00    +0.007 A 
ATOM     25  C4  T20     1     143.853  95.433 129.824  0.00  0.00    -0.010 A 
ATOM     26  C21 T20     1     144.900  95.849 130.667  0.00  0.00    +0.007 A 
ATOM     27  C22 T20     1     145.896  96.715 130.186  0.00  0.00    +0.000 A 
ENDBRANCH  21  25
ENDBRANCH  20  21
ENDBRANCH   1  20
TORSDOF 4
ENDMDL
MODEL 10
REMARK VINA RESULT:    -7.545      2.635      7.064
REMARK INTER + INTRA:         -10.168
REMARK INTER:                  -9.231
REMARK INTRA:                  -0.937
REMARK UNBOUND:                -0.859
REMARK  Name = ligands_pdb/TRN_CHEMBL50581.pdb
REMARK  4 active torsions:
REMARK  status: ('A' for Active; 'I' for Inactive)
REMARK    1  A    between atoms: C4_4  and  C5_5
REMARK    2  A    between atoms: C5_5  and  O1_6
REMARK    3  A    between atoms: O1_6  and  C6_7
REMARK    4  A    between atoms: C7_10  and  C8_11
REMARK                            x       y       z     vdW  Elec       q    Type
REMARK                         _______ _______ _______ _____ _____    ______ ____
ROOT
ATOM      1  C6  T20     1     144.205  98.134 131.495  0.00  0.00    +0.241 A 
ATOM      2  N1  T20     1     143.864  97.789 132.759  0.00  0.00    -0.125 NA
ATOM      3  N2  T20     1     142.620  98.112 133.178  0.00  0.00    -0.189 N 
ATOM      4  C7  T20     1     141.949  97.957 134.364  0.00  0.00    +0.185 A 
ATOM      5  N3  T20     1     140.687  98.528 134.299  0.00  0.00    -0.127 NA
ATOM      6  N4  T20     1     140.525  99.042 133.099  0.00  0.00    -0.127 NA
ATOM      7  C14 T20     1     141.686  98.784 132.454  0.00  0.00    +0.186 A 
ATOM      8  C15 T20     1     142.011  99.157 131.134  0.00  0.00    +0.033 A 
ATOM      9  C16 T20     1     141.100  99.847 130.310  0.00  0.00    +0.012 A 
ATOM     10  C17 T20     1     141.465 100.200 129.001  0.00  0.00    +0.001 A 
ATOM     11  C18 T20     1     142.737  99.867 128.511  0.00  0.00    +0.001 A 
ATOM     12  C19 T20     1     143.652  99.181 129.328  0.00  0.00    +0.014 A 
ATOM     13  C20 T20     1     143.298  98.821 130.645  0.00  0.00    +0.049 A 
ENDROOT
BRANCH   4  14
ATOM     14  C8  T20     1     142.445  97.301 135.581  0.00  0.00    +0.021 A 
ATOM     15  C9  T20     1     141.777  97.490 136.808  0.00  0.00    +0.011 A 
ATOM     16  C10 T20     1     142.240  96.867 137.980  0.00  0.00    +0.001 A 
ATOM     17  C11 T20     1     143.373  96.041 137.936  0.00  0.00    +0.000 A 
ATOM     18  C12 T20     1     144.041  95.838 136.718  0.00  0.00    +0.001 A 
ATOM     19  C13 T20     1     143.579  96.463 135.548  0.00  0.00    +0.011 A 
ENDBRANCH   4  14
BRANCH   1  20
ATOM     20  O1  T20     1     145.461  97.817 131.015  0.00  0.00    -0.470 OA
BRANCH  20  21
ATOM     21  C5  T20     1     145.923  96.459 130.910  0.00  0.00    +0.266 C 
BRANCH  21  25
ATOM     22  C1  T20     1     143.787  94.516 127.676  0.00  0.00    +0.000 A 
ATOM     23  C2  T20     1     144.674  95.569 127.400  0.00  0.00    +0.000 A 
ATOM     24  C3  T20     1     145.366  96.198 128.448  0.00  0.00    +0.007 A 
ATOM     25  C4  T20     1     145.176  95.776 129.777  0.00  0.00    -0.010 A 
ATOM     26  C21 T20     1     144.284  94.722 130.048  0.00  0.00    +0.007 A 
ATOM     27  C22 T20     1     143.592  94.093 129.000  0.00  0.00    +0.000 A 
ENDBRANCH  21  25
ENDBRANCH  20  21
ENDBRANCH   1  20
TORSDOF 4
ENDMDL
