MODEL 1
REMARK VINA RESULT:    -6.336      0.000      0.000
REMARK INTER + INTRA:          -7.464
REMARK INTER:                  -7.077
REMARK INTRA:                  -0.387
REMARK UNBOUND:                -0.387
REMARK  Name = ligands_pdb/TRN_CHEMBL17574.pdb
REMARK  5 active torsions:
REMARK  status: ('A' for Active; 'I' for Inactive)
REMARK    1  A    between atoms: C1_1  and  S1_2
REMARK    2  A    between atoms: S1_2  and  C2_3
REMARK    3  A    between atoms: C3_5  and  C4_6
REMARK    4  A    between atoms: C13_17  and  C14_18
REMARK    5  A    between atoms: C13_17  and  C15_19
REMARK                            x       y       z     vdW  Elec       q    Type
REMARK                         _______ _______ _______ _____ _____    ______ ____
ROOT
ATOM      1  C2  T07     1     145.234  96.086 133.246  0.00  0.00    +0.056 A 
ATOM      2  S2  T07     1     145.624  95.697 134.910  0.00  0.00    -0.081 S 
ATOM      3  C3  T07     1     144.135  96.528 135.355  0.00  0.00    +0.026 A 
ATOM      4  C9  T07     1     143.464  97.074 134.274  0.00  0.00    -0.020 A 
ATOM      5  C10 T07     1     144.086  96.807 133.090  0.00  0.00    +0.042 A 
ATOM      6  C11 T07     1     143.547  97.284 131.859  0.00  0.00    +0.166 C 
ATOM      7  O1  T07     1     144.142  97.146 130.804  0.00  0.00    -0.292 OA
ATOM      8  C12 T07     1     142.192  98.006 131.907  0.00  0.00    +0.086 C 
ATOM      9  C13 T07     1     141.984  98.832 133.205  0.00  0.00    -0.024 C 
ATOM     10  C14 T07     1     142.986 100.019 133.256  0.00  0.00    +0.011 C 
ATOM     11  C15 T07     1     140.543  99.400 133.236  0.00  0.00    +0.011 C 
ATOM     12  C16 T07     1     142.199  97.892 134.422  0.00  0.00    +0.043 C 
ENDROOT
BRANCH   3  13
ATOM     13  C4  T07     1     143.660  96.701 136.729  0.00  0.00    +0.007 A 
ATOM     14  C5  T07     1     142.771  95.788 137.323  0.00  0.00    +0.012 A 
ATOM     15  C6  T07     1     142.369  96.002 138.652  0.00  0.00    +0.020 A 
ATOM     16  C7  T07     1     142.877  97.117 139.340  0.00  0.00    +0.111 A 
ATOM     17  N1  T07     1     143.742  97.987 138.782  0.00  0.00    -0.263 NA
ATOM     18  C8  T07     1     144.127  97.777 137.507  0.00  0.00    +0.119 A 
ENDBRANCH   3  13
BRANCH   1  20
ATOM     19  C1  T07     1     147.996  95.543 132.811  0.00  0.00    +0.090 C 
ATOM     20  S1  T07     1     146.347  95.529 131.988  0.00  0.00    -0.121 S 
ENDBRANCH   1  20
TORSDOF 2
ENDMDL
MODEL 2
REMARK VINA RESULT:    -6.311      5.899      8.849
REMARK INTER + INTRA:          -7.436
REMARK INTER:                  -7.157
REMARK INTRA:                  -0.279
REMARK UNBOUND:                -0.387
REMARK  Name = ligands_pdb/TRN_CHEMBL17574.pdb
REMARK  5 active torsions:
REMARK  status: ('A' for Active; 'I' for Inactive)
REMARK    1  A    between atoms: C1_1  and  S1_2
REMARK    2  A    between atoms: S1_2  and  C2_3
REMARK    3  A    between atoms: C3_5  and  C4_6
REMARK    4  A    between atoms: C13_17  and  C14_18
REMARK    5  A    between atoms: C13_17  and  C15_19
REMARK                            x       y       z     vdW  Elec       q    Type
REMARK                         _______ _______ _______ _____ _____    ______ ____
ROOT
ATOM      1  C2  T07     1     139.563 100.125 129.994  0.00  0.00    +0.056 A 
ATOM      2  S2  T07     1     138.994  99.868 128.356  0.00  0.00    -0.081 S 
ATOM      3  C3  T07     1     139.286  98.151 128.625  0.00  0.00    +0.026 A 
ATOM      4  C9  T07     1     139.818  97.871 129.872  0.00  0.00    -0.020 A 
ATOM      5  C10 T07     1     139.957  98.989 130.640  0.00  0.00    +0.042 A 
ATOM      6  C11 T07     1     140.487  98.908 131.960  0.00  0.00    +0.166 C 
ATOM      7  O1  T07     1     140.716  99.906 132.621  0.00  0.00    -0.292 OA
ATOM      8  C12 T07     1     140.786  97.509 132.522  0.00  0.00    +0.086 C 
ATOM      9  C13 T07     1     141.267  96.505 131.440  0.00  0.00    -0.024 C 
ATOM     10  C14 T07     1     142.653  96.934 130.883  0.00  0.00    +0.011 C 
ATOM     11  C15 T07     1     141.400  95.092 132.063  0.00  0.00    +0.011 C 
ATOM     12  C16 T07     1     140.213  96.474 130.301  0.00  0.00    +0.043 C 
ENDROOT
BRANCH   3  13
ATOM     13  C4  T07     1     139.063  97.105 127.626  0.00  0.00    +0.007 A 
ATOM     14  C5  T07     1     137.771  96.648 127.311  0.00  0.00    +0.012 A 
ATOM     15  C6  T07     1     137.625  95.654 126.328  0.00  0.00    +0.020 A 
ATOM     16  C7  T07     1     138.776  95.161 125.690  0.00  0.00    +0.111 A 
ATOM     17  N1  T07     1     140.016  95.606 125.976  0.00  0.00    -0.263 NA
ATOM     18  C8  T07     1     140.152  96.561 126.918  0.00  0.00    +0.119 A 
ENDBRANCH   3  13
BRANCH   1  20
ATOM     19  C1  T07     1     137.798 102.257 130.667  0.00  0.00    +0.090 C 
ATOM     20  S1  T07     1     139.578 101.785 130.608  0.00  0.00    -0.121 S 
ENDBRANCH   1  20
TORSDOF 2
ENDMDL
MODEL 3
REMARK VINA RESULT:    -6.270      3.549      5.377
REMARK INTER + INTRA:          -7.391
REMARK INTER:                  -7.014
REMARK INTRA:                  -0.377
REMARK UNBOUND:                -0.387
REMARK  Name = ligands_pdb/TRN_CHEMBL17574.pdb
REMARK  5 active torsions:
REMARK  status: ('A' for Active; 'I' for Inactive)
REMARK    1  A    between atoms: C1_1  and  S1_2
REMARK    2  A    between atoms: S1_2  and  C2_3
REMARK    3  A    between atoms: C3_5  and  C4_6
REMARK    4  A    between atoms: C13_17  and  C14_18
REMARK    5  A    between atoms: C13_17  and  C15_19
REMARK                            x       y       z     vdW  Elec       q    Type
REMARK                         _______ _______ _______ _____ _____    ______ ____
ROOT
ATOM      1  C2  T07     1     141.465 100.056 130.729  0.00  0.00    +0.056 A 
ATOM      2  S2  T07     1     141.062  99.640 132.383  0.00  0.00    -0.081 S 
ATOM      3  C3  T07     1     142.574  98.734 132.424  0.00  0.00    +0.026 A 
ATOM      4  C9  T07     1     143.260  98.754 131.222  0.00  0.00    -0.020 A 
ATOM      5  C10 T07     1     142.633  99.513 130.279  0.00  0.00    +0.042 A 
ATOM      6  C11 T07     1     143.186  99.659 128.973  0.00  0.00    +0.166 C 
ATOM      7  O1  T07     1     142.589 100.245 128.086  0.00  0.00    -0.292 OA
ATOM      8  C12 T07     1     144.561  99.027 128.707  0.00  0.00    +0.086 C 
ATOM      9  C13 T07     1     144.790  97.708 129.494  0.00  0.00    -0.024 C 
ATOM     10  C14 T07     1     143.823  96.602 128.987  0.00  0.00    +0.011 C 
ATOM     11  C15 T07     1     146.247  97.224 129.284  0.00  0.00    +0.011 C 
ATOM     12  C16 T07     1     144.548  97.990 131.000  0.00  0.00    +0.043 C 
ENDROOT
BRANCH   3  13
ATOM     13  C4  T07     1     143.051  97.970 133.576  0.00  0.00    +0.007 A 
ATOM     14  C5  T07     1     144.137  98.410 134.356  0.00  0.00    +0.012 A 
ATOM     15  C6  T07     1     144.533  97.638 135.461  0.00  0.00    +0.020 A 
ATOM     16  C7  T07     1     143.826  96.459 135.750  0.00  0.00    +0.111 A 
ATOM     17  N1  T07     1     142.775  96.040 135.017  0.00  0.00    -0.263 NA
ATOM     18  C8  T07     1     142.396  96.784 133.959  0.00  0.00    +0.119 A 
ENDBRANCH   3  13
BRANCH   1  20
ATOM     19  C1  T07     1     139.154  99.914 129.070  0.00  0.00    +0.090 C 
ATOM     20  S1  T07     1     140.337 101.095 129.844  0.00  0.00    -0.121 S 
ENDBRANCH   1  20
TORSDOF 2
ENDMDL
MODEL 4
REMARK VINA RESULT:    -6.023      4.230      6.750
REMARK INTER + INTRA:          -7.115
REMARK INTER:                  -6.688
REMARK INTRA:                  -0.427
REMARK UNBOUND:                -0.387
REMARK  Name = ligands_pdb/TRN_CHEMBL17574.pdb
REMARK  5 active torsions:
REMARK  status: ('A' for Active; 'I' for Inactive)
REMARK    1  A    between atoms: C1_1  and  S1_2
REMARK    2  A    between atoms: S1_2  and  C2_3
REMARK    3  A    between atoms: C3_5  and  C4_6
REMARK    4  A    between atoms: C13_17  and  C14_18
REMARK    5  A    between atoms: C13_17  and  C15_19
REMARK                            x       y       z     vdW  Elec       q    Type
REMARK                         _______ _______ _______ _____ _____    ______ ____
ROOT
ATOM      1  C2  T07     1     144.624  97.401 130.075  0.00  0.00    +0.056 A 
ATOM      2  S2  T07     1     143.913  97.428 128.473  0.00  0.00    -0.081 S 
ATOM      3  C3  T07     1     142.584  98.344 129.181  0.00  0.00    +0.026 A 
ATOM      4  C9  T07     1     142.714  98.539 130.545  0.00  0.00    -0.020 A 
ATOM      5  C10 T07     1     143.874  98.016 131.035  0.00  0.00    +0.042 A 
ATOM      6  C11 T07     1     144.192  98.117 132.421  0.00  0.00    +0.166 C 
ATOM      7  O1  T07     1     145.170  97.566 132.896  0.00  0.00    -0.292 OA
ATOM      8  C12 T07     1     143.241  98.931 133.313  0.00  0.00    +0.086 C 
ATOM      9  C13 T07     1     141.756  98.831 132.873  0.00  0.00    -0.024 C 
ATOM     10  C14 T07     1     141.229  97.383 133.074  0.00  0.00    +0.011 C 
ATOM     11  C15 T07     1     140.894  99.794 133.729  0.00  0.00    +0.011 C 
ATOM     12  C16 T07     1     141.661  99.238 131.378  0.00  0.00    +0.043 C 
ENDROOT
BRANCH   3  13
ATOM     13  C4  T07     1     141.409  98.807 128.441  0.00  0.00    +0.007 A 
ATOM     14  C5  T07     1     140.311  97.962 128.194  0.00  0.00    +0.012 A 
ATOM     15  C6  T07     1     139.207  98.475 127.493  0.00  0.00    +0.020 A 
ATOM     16  C7  T07     1     139.237  99.815 127.072  0.00  0.00    +0.111 A 
ATOM     17  N1  T07     1     140.279 100.634 127.318  0.00  0.00    -0.263 NA
ATOM     18  C8  T07     1     141.337 100.139 127.993  0.00  0.00    +0.119 A 
ENDBRANCH   3  13
BRANCH   1  20
ATOM     19  C1  T07     1     145.739  94.847 130.664  0.00  0.00    +0.090 C 
ATOM     20  S1  T07     1     146.185  96.590 130.269  0.00  0.00    -0.121 S 
ENDBRANCH   1  20
TORSDOF 2
ENDMDL
MODEL 5
REMARK VINA RESULT:    -5.977      4.513      7.414
REMARK INTER + INTRA:          -7.063
REMARK INTER:                  -6.682
REMARK INTRA:                  -0.381
REMARK UNBOUND:                -0.387
REMARK  Name = ligands_pdb/TRN_CHEMBL17574.pdb
REMARK  5 active torsions:
REMARK  status: ('A' for Active; 'I' for Inactive)
REMARK    1  A    between atoms: C1_1  and  S1_2
REMARK    2  A    between atoms: S1_2  and  C2_3
REMARK    3  A    between atoms: C3_5  and  C4_6
REMARK    4  A    between atoms: C13_17  and  C14_18
REMARK    5  A    between atoms: C13_17  and  C15_19
REMARK                            x       y       z     vdW  Elec       q    Type
REMARK                         _______ _______ _______ _____ _____    ______ ____
ROOT
ATOM      1  C2  T07     1     140.477 100.403 131.074  0.00  0.00    +0.056 A 
ATOM      2  S2  T07     1     140.881 100.020 129.412  0.00  0.00    -0.081 S 
ATOM      3  C3  T07     1     141.657  98.565 130.035  0.00  0.00    +0.026 A 
ATOM      4  C9  T07     1     141.613  98.465 131.415  0.00  0.00    -0.020 A 
ATOM      5  C10 T07     1     140.934  99.500 131.989  0.00  0.00    +0.042 A 
ATOM      6  C11 T07     1     140.778  99.575 133.404  0.00  0.00    +0.166 C 
ATOM      7  O1  T07     1     140.266 100.543 133.941  0.00  0.00    -0.292 OA
ATOM      8  C12 T07     1     141.301  98.398 134.242  0.00  0.00    +0.086 C 
ATOM      9  C13 T07     1     142.575  97.742 133.645  0.00  0.00    -0.024 C 
ATOM     10  C14 T07     1     143.770  98.734 133.699  0.00  0.00    +0.011 C 
ATOM     11  C15 T07     1     142.943  96.480 134.467  0.00  0.00    +0.011 C 
ATOM     12  C16 T07     1     142.275  97.337 132.178  0.00  0.00    +0.043 C 
ENDROOT
BRANCH   3  13
ATOM     13  C4  T07     1     142.349  97.576 129.209  0.00  0.00    +0.007 A 
ATOM     14  C5  T07     1     143.693  97.740 128.829  0.00  0.00    +0.012 A 
ATOM     15  C6  T07     1     144.303  96.743 128.050  0.00  0.00    +0.020 A 
ATOM     16  C7  T07     1     143.550  95.614 127.686  0.00  0.00    +0.111 A 
ATOM     17  N1  T07     1     142.266  95.443 128.059  0.00  0.00    -0.263 NA
ATOM     18  C8  T07     1     141.684  96.401 128.808  0.00  0.00    +0.119 A 
ENDBRANCH   3  13
BRANCH   1  20
ATOM     19  C1  T07     1     138.174 101.811 130.162  0.00  0.00    +0.090 C 
ATOM     20  S1  T07     1     139.558 101.886 131.377  0.00  0.00    -0.121 S 
ENDBRANCH   1  20
TORSDOF 2
ENDMDL
MODEL 6
REMARK VINA RESULT:    -5.848      4.116      5.751
REMARK INTER + INTRA:          -6.919
REMARK INTER:                  -6.551
REMARK INTRA:                  -0.368
REMARK UNBOUND:                -0.387
REMARK  Name = ligands_pdb/TRN_CHEMBL17574.pdb
REMARK  5 active torsions:
REMARK  status: ('A' for Active; 'I' for Inactive)
REMARK    1  A    between atoms: C1_1  and  S1_2
REMARK    2  A    between atoms: S1_2  and  C2_3
REMARK    3  A    between atoms: C3_5  and  C4_6
REMARK    4  A    between atoms: C13_17  and  C14_18
REMARK    5  A    between atoms: C13_17  and  C15_19
REMARK                            x       y       z     vdW  Elec       q    Type
REMARK                         _______ _______ _______ _____ _____    ______ ____
ROOT
ATOM      1  C2  T07     1     141.732  96.923 127.965  0.00  0.00    +0.056 A 
ATOM      2  S2  T07     1     142.749  96.359 129.278  0.00  0.00    -0.081 S 
ATOM      3  C3  T07     1     141.870  97.483 130.314  0.00  0.00    +0.026 A 
ATOM      4  C9  T07     1     140.921  98.229 129.638  0.00  0.00    -0.020 A 
ATOM      5  C10 T07     1     140.842  97.896 128.318  0.00  0.00    +0.042 A 
ATOM      6  C11 T07     1     139.920  98.553 127.452  0.00  0.00    +0.166 C 
ATOM      7  O1  T07     1     139.908  98.343 126.252  0.00  0.00    -0.292 OA
ATOM      8  C12 T07     1     138.948  99.562 128.082  0.00  0.00    +0.086 C 
ATOM      9  C13 T07     1     139.561 100.338 129.279  0.00  0.00    -0.024 C 
ATOM     10  C14 T07     1     140.714 101.259 128.792  0.00  0.00    +0.011 C 
ATOM     11  C15 T07     1     138.472 101.218 129.942  0.00  0.00    +0.011 C 
ATOM     12  C16 T07     1     140.093  99.305 130.309  0.00  0.00    +0.043 C 
ENDROOT
BRANCH   3  13
ATOM     13  C4  T07     1     142.140  97.681 131.739  0.00  0.00    +0.007 A 
ATOM     14  C5  T07     1     142.906  98.766 132.202  0.00  0.00    +0.012 A 
ATOM     15  C6  T07     1     143.113  98.908 133.584  0.00  0.00    +0.020 A 
ATOM     16  C7  T07     1     142.539  97.965 134.453  0.00  0.00    +0.111 A 
ATOM     17  N1  T07     1     141.791  96.931 134.018  0.00  0.00    -0.263 NA
ATOM     18  C8  T07     1     141.594  96.799 132.691  0.00  0.00    +0.119 A 
ENDBRANCH   3  13
BRANCH   1  20
ATOM     19  C1  T07     1     143.665  95.472 126.458  0.00  0.00    +0.090 C 
ATOM     20  S1  T07     1     141.974  96.199 126.369  0.00  0.00    -0.121 S 
ENDBRANCH   1  20
TORSDOF 2
ENDMDL
MODEL 7
REMARK VINA RESULT:    -5.845      3.504      6.086
REMARK INTER + INTRA:          -6.916
REMARK INTER:                  -6.476
REMARK INTRA:                  -0.439
REMARK UNBOUND:                -0.387
REMARK  Name = ligands_pdb/TRN_CHEMBL17574.pdb
REMARK  5 active torsions:
REMARK  status: ('A' for Active; 'I' for Inactive)
REMARK    1  A    between atoms: C1_1  and  S1_2
REMARK    2  A    between atoms: S1_2  and  C2_3
REMARK    3  A    between atoms: C3_5  and  C4_6
REMARK    4  A    between atoms: C13_17  and  C14_18
REMARK    5  A    between atoms: C13_17  and  C15_19
REMARK                            x       y       z     vdW  Elec       q    Type
REMARK                         _______ _______ _______ _____ _____    ______ ____
ROOT
ATOM      1  C2  T07     1     145.004  97.550 130.030  0.00  0.00    +0.056 A 
ATOM      2  S2  T07     1     143.963  98.244 128.801  0.00  0.00    -0.081 S 
ATOM      3  C3  T07     1     142.828  98.604 130.101  0.00  0.00    +0.026 A 
ATOM      4  C9  T07     1     143.253  98.163 131.343  0.00  0.00    -0.020 A 
ATOM      5  C10 T07     1     144.486  97.583 131.292  0.00  0.00    +0.042 A 
ATOM      6  C11 T07     1     145.098  97.066 132.471  0.00  0.00    +0.166 C 
ATOM      7  O1  T07     1     146.150  96.451 132.429  0.00  0.00    -0.292 OA
ATOM      8  C12 T07     1     144.372  97.287 133.807  0.00  0.00    +0.086 C 
ATOM      9  C13 T07     1     142.825  97.264 133.673  0.00  0.00    -0.024 C 
ATOM     10  C14 T07     1     142.339  95.843 133.272  0.00  0.00    +0.011 C 
ATOM     11  C15 T07     1     142.179  97.642 135.030  0.00  0.00    +0.011 C 
ATOM     12  C16 T07     1     142.412  98.301 132.594  0.00  0.00    +0.043 C 
ENDROOT
BRANCH   3  13
ATOM     13  C4  T07     1     141.526  99.245 129.911  0.00  0.00    +0.007 A 
ATOM     14  C5  T07     1     141.372 100.641 129.984  0.00  0.00    +0.012 A 
ATOM     15  C6  T07     1     140.097 101.193 129.773  0.00  0.00    +0.020 A 
ATOM     16  C7  T07     1     139.025 100.330 129.489  0.00  0.00    +0.111 A 
ATOM     17  N1  T07     1     139.169  98.992 129.402  0.00  0.00    -0.263 NA
ATOM     18  C8  T07     1     140.394  98.466 129.603  0.00  0.00    +0.119 A 
ENDBRANCH   3  13
BRANCH   1  20
ATOM     19  C1  T07     1     146.198  95.120 129.144  0.00  0.00    +0.090 C 
ATOM     20  S1  T07     1     146.561  96.889 129.511  0.00  0.00    -0.121 S 
ENDBRANCH   1  20
TORSDOF 2
ENDMDL
MODEL 8
REMARK VINA RESULT:    -5.713      3.369      6.165
REMARK INTER + INTRA:          -6.768
REMARK INTER:                  -6.360
REMARK INTRA:                  -0.408
REMARK UNBOUND:                -0.387
REMARK  Name = ligands_pdb/TRN_CHEMBL17574.pdb
REMARK  5 active torsions:
REMARK  status: ('A' for Active; 'I' for Inactive)
REMARK    1  A    between atoms: C1_1  and  S1_2
REMARK    2  A    between atoms: S1_2  and  C2_3
REMARK    3  A    between atoms: C3_5  and  C4_6
REMARK    4  A    between atoms: C13_17  and  C14_18
REMARK    5  A    between atoms: C13_17  and  C15_19
REMARK                            x       y       z     vdW  Elec       q    Type
REMARK                         _______ _______ _______ _____ _____    ______ ____
ROOT
ATOM      1  C2  T07     1     143.958  97.597 133.611  0.00  0.00    +0.056 A 
ATOM      2  S2  T07     1     142.694  98.812 133.621  0.00  0.00    -0.081 S 
ATOM      3  C3  T07     1     142.476  98.463 131.907  0.00  0.00    +0.026 A 
ATOM      4  C9  T07     1     143.361  97.517 131.420  0.00  0.00    -0.020 A 
ATOM      5  C10 T07     1     144.182  97.026 132.392  0.00  0.00    +0.042 A 
ATOM      6  C11 T07     1     145.164  96.038 132.088  0.00  0.00    +0.166 C 
ATOM      7  O1  T07     1     145.974  95.664 132.918  0.00  0.00    -0.292 OA
ATOM      8  C12 T07     1     145.185  95.470 130.660  0.00  0.00    +0.086 C 
ATOM      9  C13 T07     1     144.788  96.513 129.581  0.00  0.00    -0.024 C 
ATOM     10  C14 T07     1     145.857  97.638 129.498  0.00  0.00    +0.011 C 
ATOM     11  C15 T07     1     144.691  95.821 128.198  0.00  0.00    +0.011 C 
ATOM     12  C16 T07     1     143.406  97.109 129.962  0.00  0.00    +0.043 C 
ENDROOT
BRANCH   3  13
ATOM     13  C4  T07     1     141.511  99.140 131.040  0.00  0.00    +0.007 A 
ATOM     14  C5  T07     1     141.873 100.250 130.255  0.00  0.00    +0.012 A 
ATOM     15  C6  T07     1     140.903 100.841 129.430  0.00  0.00    +0.020 A 
ATOM     16  C7  T07     1     139.607 100.297 129.413  0.00  0.00    +0.111 A 
ATOM     17  N1  T07     1     139.257  99.224 130.150  0.00  0.00    -0.263 NA
ATOM     18  C8  T07     1     140.192  98.657 130.940  0.00  0.00    +0.119 A 
ENDBRANCH   3  13
BRANCH   1  20
ATOM     19  C1  T07     1     143.552  96.327 136.128  0.00  0.00    +0.090 C 
ATOM     20  S1  T07     1     144.791  97.264 135.136  0.00  0.00    -0.121 S 
ENDBRANCH   1  20
TORSDOF 2
ENDMDL
MODEL 9
REMARK VINA RESULT:    -5.690      3.794      6.297
REMARK INTER + INTRA:          -6.742
REMARK INTER:                  -6.361
REMARK INTRA:                  -0.381
REMARK UNBOUND:                -0.387
REMARK  Name = ligands_pdb/TRN_CHEMBL17574.pdb
REMARK  5 active torsions:
REMARK  status: ('A' for Active; 'I' for Inactive)
REMARK    1  A    between atoms: C1_1  and  S1_2
REMARK    2  A    between atoms: S1_2  and  C2_3
REMARK    3  A    between atoms: C3_5  and  C4_6
REMARK    4  A    between atoms: C13_17  and  C14_18
REMARK    5  A    between atoms: C13_17  and  C15_19
REMARK                            x       y       z     vdW  Elec       q    Type
REMARK                         _______ _______ _______ _____ _____    ______ ____
ROOT
ATOM      1  C2  T07     1     141.507  99.032 131.170  0.00  0.00    +0.056 A 
ATOM      2  S2  T07     1     142.179  98.206 129.777  0.00  0.00    -0.081 S 
ATOM      3  C3  T07     1     142.741  96.970 130.901  0.00  0.00    +0.026 A 
ATOM      4  C9  T07     1     142.445  97.251 132.223  0.00  0.00    -0.020 A 
ATOM      5  C10 T07     1     141.738  98.408 132.362  0.00  0.00    +0.042 A 
ATOM      6  C11 T07     1     141.336  98.869 133.649  0.00  0.00    +0.166 C 
ATOM      7  O1  T07     1     140.796  99.951 133.802  0.00  0.00    -0.292 OA
ATOM      8  C12 T07     1     141.628  97.961 134.854  0.00  0.00    +0.086 C 
ATOM      9  C13 T07     1     142.946  97.154 134.706  0.00  0.00    -0.024 C 
ATOM     10  C14 T07     1     144.170  98.112 134.718  0.00  0.00    +0.011 C 
ATOM     11  C15 T07     1     143.084  96.161 135.888  0.00  0.00    +0.011 C 
ATOM     12  C16 T07     1     142.889  96.367 133.369  0.00  0.00    +0.043 C 
ENDROOT
BRANCH   3  13
ATOM     13  C4  T07     1     143.508  95.785 130.514  0.00  0.00    +0.007 A 
ATOM     14  C5  T07     1     142.876  94.591 130.120  0.00  0.00    +0.012 A 
ATOM     15  C6  T07     1     143.671  93.497 129.743  0.00  0.00    +0.020 A 
ATOM     16  C7  T07     1     145.069  93.638 129.765  0.00  0.00    +0.111 A 
ATOM     17  N1  T07     1     145.682  94.783 130.125  0.00  0.00    -0.263 NA
ATOM     18  C8  T07     1     144.915  95.833 130.485  0.00  0.00    +0.119 A 
ENDBRANCH   3  13
BRANCH   1  20
ATOM     19  C1  T07     1     139.170 100.048 129.898  0.00  0.00    +0.090 C 
ATOM     20  S1  T07     1     140.642 100.550 130.887  0.00  0.00    -0.121 S 
ENDBRANCH   1  20
TORSDOF 2
ENDMDL
MODEL 10
REMARK VINA RESULT:    -5.627      3.803      6.259
REMARK INTER + INTRA:          -6.672
REMARK INTER:                  -6.321
REMARK INTRA:                  -0.351
REMARK UNBOUND:                -0.387
REMARK  Name = ligands_pdb/TRN_CHEMBL17574.pdb
REMARK  5 active torsions:
REMARK  status: ('A' for Active; 'I' for Inactive)
REMARK    1  A    between atoms: C1_1  and  S1_2
REMARK    2  A    between atoms: S1_2  and  C2_3
REMARK    3  A    between atoms: C3_5  and  C4_6
REMARK    4  A    between atoms: C13_17  and  C14_18
REMARK    5  A    between atoms: C13_17  and  C15_19
REMARK                            x       y       z     vdW  Elec       q    Type
REMARK                         _______ _______ _______ _____ _____    ______ ____
ROOT
ATOM      1  C2  T07     1     141.608  98.252 129.074  0.00  0.00    +0.056 A 
ATOM      2  S2  T07     1     143.070  97.667 128.301  0.00  0.00    -0.081 S 
ATOM      3  C3  T07     1     143.625  97.211 129.911  0.00  0.00    +0.026 A 
ATOM      4  C9  T07     1     142.736  97.548 130.917  0.00  0.00    -0.020 A 
ATOM      5  C10 T07     1     141.597  98.121 130.432  0.00  0.00    +0.042 A 
ATOM      6  C11 T07     1     140.557  98.538 131.313  0.00  0.00    +0.166 C 
ATOM      7  O1  T07     1     139.581  99.146 130.910  0.00  0.00    -0.292 OA
ATOM      8  C12 T07     1     140.717  98.215 132.807  0.00  0.00    +0.086 C 
ATOM      9  C13 T07     1     142.193  98.260 133.288  0.00  0.00    -0.024 C 
ATOM     10  C14 T07     1     142.742  99.712 133.210  0.00  0.00    +0.011 C 
ATOM     11  C15 T07     1     142.276  97.779 134.759  0.00  0.00    +0.011 C 
ATOM     12  C16 T07     1     143.030  97.317 132.384  0.00  0.00    +0.043 C 
ENDROOT
BRANCH   3  13
ATOM     13  C4  T07     1     144.922  96.598 130.198  0.00  0.00    +0.007 A 
ATOM     14  C5  T07     1     145.031  95.255 130.603  0.00  0.00    +0.012 A 
ATOM     15  C6  T07     1     146.309  94.723 130.845  0.00  0.00    +0.020 A 
ATOM     16  C7  T07     1     147.431  95.549 130.664  0.00  0.00    +0.111 A 
ATOM     17  N1  T07     1     147.335  96.832 130.260  0.00  0.00    -0.263 NA
ATOM     18  C8  T07     1     146.107  97.339 130.027  0.00  0.00    +0.119 A 
ENDBRANCH   3  13
BRANCH   1  20
ATOM     19  C1  T07     1     140.733 100.743 128.006  0.00  0.00    +0.090 C 
ATOM     20  S1  T07     1     140.350  98.941 128.038  0.00  0.00    -0.121 S 
ENDBRANCH   1  20
TORSDOF 2
ENDMDL
