MODEL 1
REMARK VINA RESULT:    -8.394      0.000      0.000
REMARK INTER + INTRA:         -11.621
REMARK INTER:                 -10.357
REMARK INTRA:                  -1.264
REMARK UNBOUND:                -1.264
REMARK  Name = ligands_pdb/TRN_CHEMBL121277.pdb
REMARK  5 active torsions:
REMARK  status: ('A' for Active; 'I' for Inactive)
REMARK    1  A    between atoms: C1_1  and  C2_2
REMARK    2  A    between atoms: C3_5  and  C4_6
REMARK    3  A    between atoms: C8_12  and  O2_13
REMARK    4  A    between atoms: O2_13  and  C9_14
REMARK    5  A    between atoms: C9_14  and  C10_15
REMARK                            x       y       z     vdW  Elec       q    Type
REMARK                         _______ _______ _______ _____ _____    ______ ____
ROOT
ATOM      1  C4  T02     1     144.497  96.870 135.186  0.00  0.00    +0.243 A 
ATOM      2  N2  T02     1     145.806  96.704 135.028  0.00  0.00    -0.122 NA
ATOM      3  N3  T02     1     146.060  96.691 133.676  0.00  0.00    -0.127 NA
ATOM      4  C5  T02     1     144.884  96.851 133.106  0.00  0.00    +0.182 A 
ATOM      5  C6  T02     1     144.635  96.902 131.708  0.00  0.00    +0.010 A 
ATOM      6  C7  T02     1     143.315  97.078 131.363  0.00  0.00    +0.026 A 
ATOM      7  C8  T02     1     142.322  97.192 132.333  0.00  0.00    +0.237 A 
ATOM      8  N5  T02     1     142.519  97.148 133.665  0.00  0.00    -0.125 NA
ATOM      9  N6  T02     1     143.842  96.972 133.979  0.00  0.00    -0.185 N 
ATOM     10  C15 T02     1     143.108  97.126 129.860  0.00  0.00    +0.025 C 
ATOM     11  C16 T02     1     143.671  95.795 129.276  0.00  0.00    +0.009 C 
ATOM     12  C17 T02     1     145.164  95.597 129.702  0.00  0.00    +0.009 C 
ATOM     13  C18 T02     1     145.637  96.789 130.585  0.00  0.00    +0.023 C 
ATOM     14  C19 T02     1     145.485  98.087 129.739  0.00  0.00    +0.009 C 
ATOM     15  C20 T02     1     143.992  98.287 129.313  0.00  0.00    +0.009 C 
ENDROOT
BRANCH   1  20
ATOM     16  C1  T02     1     141.777  95.913 139.098  0.00  0.00    +0.091 C 
ATOM     17  C2  T02     1     142.778  96.534 138.162  0.00  0.00    +0.169 A 
ATOM     18  N1  T02     1     143.518  97.574 138.525  0.00  0.00    -0.061 NA
ATOM     19  O1  T02     1     144.310  97.861 137.399  0.00  0.00    -0.329 OA
ATOM     20  C3  T02     1     143.915  96.925 136.503  0.00  0.00    +0.298 A 
ATOM     21  N7  T02     1     143.005  96.137 136.953  0.00  0.00    -0.189 NA
ENDBRANCH   1  20
BRANCH   7  22
ATOM     22  O2  T02     1     141.027  97.365 131.908  0.00  0.00    -0.470 OA
BRANCH  22  23
ATOM     23  C9  T02     1     140.296  98.594 132.096  0.00  0.00    +0.267 C 
BRANCH  23  24
ATOM     24  C10 T02     1     140.237  99.331 130.770  0.00  0.00    +0.008 A 
ATOM     25  C11 T02     1     141.159 100.348 130.465  0.00  0.00    +0.010 A 
ATOM     26  C12 T02     1     141.059 101.001 129.227  0.00  0.00    +0.020 A 
ATOM     27  C13 T02     1     140.040 100.615 128.338  0.00  0.00    +0.111 A 
ATOM     28  N4  T02     1     139.151  99.643 128.625  0.00  0.00    -0.263 NA
ATOM     29  C14 T02     1     139.249  99.018 129.817  0.00  0.00    +0.117 A 
ENDBRANCH  23  24
ENDBRANCH  22  23
ENDBRANCH   7  22
TORSDOF 4
ENDMDL
MODEL 2
REMARK VINA RESULT:    -7.877      2.261      5.298
REMARK INTER + INTRA:         -10.983
REMARK INTER:                 -10.163
REMARK INTRA:                  -0.820
REMARK UNBOUND:                -1.264
REMARK  Name = ligands_pdb/TRN_CHEMBL121277.pdb
REMARK  5 active torsions:
REMARK  status: ('A' for Active; 'I' for Inactive)
REMARK    1  A    between atoms: C1_1  and  C2_2
REMARK    2  A    between atoms: C3_5  and  C4_6
REMARK    3  A    between atoms: C8_12  and  O2_13
REMARK    4  A    between atoms: O2_13  and  C9_14
REMARK    5  A    between atoms: C9_14  and  C10_15
REMARK                            x       y       z     vdW  Elec       q    Type
REMARK                         _______ _______ _______ _____ _____    ______ ____
ROOT
ATOM      1  C4  T02     1     142.183  97.470 135.567  0.00  0.00    +0.243 A 
ATOM      2  N2  T02     1     140.989  97.970 135.268  0.00  0.00    -0.122 NA
ATOM      3  N3  T02     1     141.002  98.301 133.932  0.00  0.00    -0.127 NA
ATOM      4  C5  T02     1     142.207  97.977 133.513  0.00  0.00    +0.182 A 
ATOM      5  C6  T02     1     142.699  98.135 132.189  0.00  0.00    +0.010 A 
ATOM      6  C7  T02     1     143.997  97.719 132.003  0.00  0.00    +0.026 A 
ATOM      7  C8  T02     1     144.746  97.189 133.052  0.00  0.00    +0.237 A 
ATOM      8  N5  T02     1     144.315  97.025 134.317  0.00  0.00    -0.125 NA
ATOM      9  N6  T02     1     143.020  97.447 134.473  0.00  0.00    -0.185 N 
ATOM     10  C15 T02     1     144.470  97.910 130.573  0.00  0.00    +0.025 C 
ATOM     11  C16 T02     1     144.308  99.422 130.234  0.00  0.00    +0.009 C 
ATOM     12  C17 T02     1     142.833  99.885 130.480  0.00  0.00    +0.009 C 
ATOM     13  C18 T02     1     141.971  98.695 130.992  0.00  0.00    +0.023 C 
ATOM     14  C19 T02     1     142.014  97.584 129.902  0.00  0.00    +0.009 C 
ATOM     15  C20 T02     1     143.487  97.119 129.657  0.00  0.00    +0.009 C 
ENDROOT
BRANCH   1  20
ATOM     16  C1  T02     1     141.937  96.681 140.356  0.00  0.00    +0.091 C 
ATOM     17  C2  T02     1     142.395  96.684 138.923  0.00  0.00    +0.169 A 
ATOM     18  N1  T02     1     143.522  96.090 138.552  0.00  0.00    -0.061 NA
ATOM     19  O1  T02     1     143.604  96.313 137.165  0.00  0.00    -0.329 OA
ATOM     20  C3  T02     1     142.484  97.029 136.905  0.00  0.00    +0.298 A 
ATOM     21  N7  T02     1     141.766  97.252 137.947  0.00  0.00    -0.189 NA
ENDBRANCH   1  20
BRANCH   7  22
ATOM     22  O2  T02     1     146.035  96.797 132.784  0.00  0.00    -0.470 OA
BRANCH  22  23
ATOM     23  C9  T02     1     146.626  95.606 133.344  0.00  0.00    +0.267 C 
BRANCH  23  24
ATOM     24  C10 T02     1     146.791  94.581 132.236  0.00  0.00    +0.008 A 
ATOM     25  C11 T02     1     146.068  94.690 131.035  0.00  0.00    +0.010 A 
ATOM     26  C12 T02     1     146.254  93.713 130.044  0.00  0.00    +0.020 A 
ATOM     27  C13 T02     1     147.155  92.662 130.290  0.00  0.00    +0.111 A 
ATOM     28  N4  T02     1     147.849  92.550 131.441  0.00  0.00    -0.263 NA
ATOM     29  C14 T02     1     147.667  93.489 132.392  0.00  0.00    +0.117 A 
ENDBRANCH  23  24
ENDBRANCH  22  23
ENDBRANCH   7  22
TORSDOF 4
ENDMDL
MODEL 3
REMARK VINA RESULT:    -7.842      3.741      7.695
REMARK INTER + INTRA:         -10.939
REMARK INTER:                  -9.869
REMARK INTRA:                  -1.070
REMARK UNBOUND:                -1.264
REMARK  Name = ligands_pdb/TRN_CHEMBL121277.pdb
REMARK  5 active torsions:
REMARK  status: ('A' for Active; 'I' for Inactive)
REMARK    1  A    between atoms: C1_1  and  C2_2
REMARK    2  A    between atoms: C3_5  and  C4_6
REMARK    3  A    between atoms: C8_12  and  O2_13
REMARK    4  A    between atoms: O2_13  and  C9_14
REMARK    5  A    between atoms: C9_14  and  C10_15
REMARK                            x       y       z     vdW  Elec       q    Type
REMARK                         _______ _______ _______ _____ _____    ______ ____
ROOT
ATOM      1  C4  T02     1     139.158  98.254 128.759  0.00  0.00    +0.243 A 
ATOM      2  N2  T02     1     139.162  99.581 128.687  0.00  0.00    -0.122 NA
ATOM      3  N3  T02     1     139.741 100.055 129.842  0.00  0.00    -0.127 NA
ATOM      4  C5  T02     1     140.049  98.979 130.535  0.00  0.00    +0.182 A 
ATOM      5  C6  T02     1     140.672  98.960 131.812  0.00  0.00    +0.010 A 
ATOM      6  C7  T02     1     140.889  97.704 132.331  0.00  0.00    +0.026 A 
ATOM      7  C8  T02     1     140.513  96.558 131.632  0.00  0.00    +0.237 A 
ATOM      8  N5  T02     1     139.922  96.536 130.423  0.00  0.00    -0.125 NA
ATOM      9  N6  T02     1     139.718  97.800 129.932  0.00  0.00    -0.185 N 
ATOM     10  C15 T02     1     141.556  97.743 133.693  0.00  0.00    +0.025 C 
ATOM     11  C16 T02     1     140.640  98.588 134.628  0.00  0.00    +0.009 C 
ATOM     12  C17 T02     1     140.381 100.003 134.010  0.00  0.00    +0.009 C 
ATOM     13  C18 T02     1     141.114 100.139 132.644  0.00  0.00    +0.023 C 
ATOM     14  C19 T02     1     142.634  99.937 132.907  0.00  0.00    +0.009 C 
ATOM     15  C20 T02     1     142.896  98.522 133.524  0.00  0.00    +0.009 C 
ENDROOT
BRANCH   1  20
ATOM     16  C1  T02     1     138.477  94.747 125.464  0.00  0.00    +0.091 C 
ATOM     17  C2  T02     1     138.305  95.989 126.295  0.00  0.00    +0.169 A 
ATOM     18  N1  T02     1     137.289  96.821 126.102  0.00  0.00    -0.061 NA
ATOM     19  O1  T02     1     137.476  97.843 127.051  0.00  0.00    -0.329 OA
ATOM     20  C3  T02     1     138.609  97.461 127.689  0.00  0.00    +0.298 A 
ATOM     21  N7  T02     1     139.103  96.362 127.241  0.00  0.00    -0.189 NA
ENDBRANCH   1  20
BRANCH   7  22
ATOM     22  O2  T02     1     140.764  95.340 132.218  0.00  0.00    -0.470 OA
BRANCH  22  23
ATOM     23  C9  T02     1     141.564  94.317 131.590  0.00  0.00    +0.267 C 
BRANCH  23  24
ATOM     24  C10 T02     1     142.825  94.958 131.040  0.00  0.00    +0.008 A 
ATOM     25  C11 T02     1     143.806  95.483 131.901  0.00  0.00    +0.010 A 
ATOM     26  C12 T02     1     144.952  96.069 131.340  0.00  0.00    +0.020 A 
ATOM     27  C13 T02     1     145.076  96.110 129.941  0.00  0.00    +0.111 A 
ATOM     28  N4  T02     1     144.138  95.612 129.109  0.00  0.00    -0.263 NA
ATOM     29  C14 T02     1     143.037  95.051 129.651  0.00  0.00    +0.117 A 
ENDBRANCH  23  24
ENDBRANCH  22  23
ENDBRANCH   7  22
TORSDOF 4
ENDMDL
MODEL 4
REMARK VINA RESULT:    -7.652      3.204      5.769
REMARK INTER + INTRA:         -10.704
REMARK INTER:                  -9.299
REMARK INTRA:                  -1.406
REMARK UNBOUND:                -1.264
REMARK  Name = ligands_pdb/TRN_CHEMBL121277.pdb
REMARK  5 active torsions:
REMARK  status: ('A' for Active; 'I' for Inactive)
REMARK    1  A    between atoms: C1_1  and  C2_2
REMARK    2  A    between atoms: C3_5  and  C4_6
REMARK    3  A    between atoms: C8_12  and  O2_13
REMARK    4  A    between atoms: O2_13  and  C9_14
REMARK    5  A    between atoms: C9_14  and  C10_15
REMARK                            x       y       z     vdW  Elec       q    Type
REMARK                         _______ _______ _______ _____ _____    ______ ____
ROOT
ATOM      1  C4  T02     1     143.558  94.578 130.268  0.00  0.00    +0.243 A 
ATOM      2  N2  T02     1     144.746  94.769 130.830  0.00  0.00    -0.122 NA
ATOM      3  N3  T02     1     144.621  95.815 131.716  0.00  0.00    -0.127 NA
ATOM      4  C5  T02     1     143.360  96.185 131.629  0.00  0.00    +0.182 A 
ATOM      5  C6  T02     1     142.749  97.239 132.361  0.00  0.00    +0.010 A 
ATOM      6  C7  T02     1     141.414  97.430 132.091  0.00  0.00    +0.026 A 
ATOM      7  C8  T02     1     140.741  96.636 131.165  0.00  0.00    +0.237 A 
ATOM      8  N5  T02     1     141.286  95.630 130.453  0.00  0.00    -0.125 NA
ATOM      9  N6  T02     1     142.616  95.463 130.742  0.00  0.00    -0.185 N 
ATOM     10  C15 T02     1     140.813  98.565 132.900  0.00  0.00    +0.025 C 
ATOM     11  C16 T02     1     141.642  99.845 132.579  0.00  0.00    +0.009 C 
ATOM     12  C17 T02     1     143.162  99.601 132.865  0.00  0.00    +0.009 C 
ATOM     13  C18 T02     1     143.389  98.150 133.380  0.00  0.00    +0.023 C 
ATOM     14  C19 T02     1     142.561  97.983 134.688  0.00  0.00    +0.009 C 
ATOM     15  C20 T02     1     141.042  98.226 134.404  0.00  0.00    +0.009 C 
ENDROOT
BRANCH   1  20
ATOM     16  C1  T02     1     143.368  90.250 128.065  0.00  0.00    +0.091 C 
ATOM     17  C2  T02     1     143.277  91.725 128.341  0.00  0.00    +0.169 A 
ATOM     18  N1  T02     1     142.881  92.584 127.409  0.00  0.00    -0.061 NA
ATOM     19  O1  T02     1     142.933  93.843 128.036  0.00  0.00    -0.329 OA
ATOM     20  C3  T02     1     143.366  93.542 129.284  0.00  0.00    +0.298 A 
ATOM     21  N7  T02     1     143.572  92.288 129.467  0.00  0.00    -0.189 NA
ENDBRANCH   1  20
BRANCH   7  22
ATOM     22  O2  T02     1     139.408  96.890 130.951  0.00  0.00    -0.470 OA
BRANCH  22  23
ATOM     23  C9  T02     1     138.858  97.156 129.644  0.00  0.00    +0.267 C 
BRANCH  23  24
ATOM     24  C10 T02     1     139.424  98.472 129.141  0.00  0.00    +0.008 A 
ATOM     25  C11 T02     1     139.121  99.685 129.785  0.00  0.00    +0.010 A 
ATOM     26  C12 T02     1     139.666 100.874 129.276  0.00  0.00    +0.020 A 
ATOM     27  C13 T02     1     140.492 100.809 128.141  0.00  0.00    +0.111 A 
ATOM     28  N4  T02     1     140.784  99.650 127.516  0.00  0.00    -0.263 NA
ATOM     29  C14 T02     1     140.257  98.509 128.006  0.00  0.00    +0.117 A 
ENDBRANCH  23  24
ENDBRANCH  22  23
ENDBRANCH   7  22
TORSDOF 4
ENDMDL
MODEL 5
REMARK VINA RESULT:    -7.610      1.975      4.612
REMARK INTER + INTRA:         -10.653
REMARK INTER:                  -9.444
REMARK INTRA:                  -1.209
REMARK UNBOUND:                -1.264
REMARK  Name = ligands_pdb/TRN_CHEMBL121277.pdb
REMARK  5 active torsions:
REMARK  status: ('A' for Active; 'I' for Inactive)
REMARK    1  A    between atoms: C1_1  and  C2_2
REMARK    2  A    between atoms: C3_5  and  C4_6
REMARK    3  A    between atoms: C8_12  and  O2_13
REMARK    4  A    between atoms: O2_13  and  C9_14
REMARK    5  A    between atoms: C9_14  and  C10_15
REMARK                            x       y       z     vdW  Elec       q    Type
REMARK                         _______ _______ _______ _____ _____    ______ ____
ROOT
ATOM      1  C4  T02     1     141.805  98.283 133.918  0.00  0.00    +0.243 A 
ATOM      2  N2  T02     1     141.437  99.556 133.998  0.00  0.00    -0.122 NA
ATOM      3  N3  T02     1     141.075  99.962 132.734  0.00  0.00    -0.127 NA
ATOM      4  C5  T02     1     141.249  98.902 131.973  0.00  0.00    +0.182 A 
ATOM      5  C6  T02     1     141.007  98.830 130.575  0.00  0.00    +0.010 A 
ATOM      6  C7  T02     1     141.267  97.605 130.006  0.00  0.00    +0.026 A 
ATOM      7  C8  T02     1     141.733  96.537 130.769  0.00  0.00    +0.237 A 
ATOM      8  N5  T02     1     141.975  96.566 132.093  0.00  0.00    -0.125 NA
ATOM      9  N6  T02     1     141.707  97.798 132.633  0.00  0.00    -0.185 N 
ATOM     10  C15 T02     1     140.990  97.586 128.513  0.00  0.00    +0.025 C 
ATOM     11  C16 T02     1     141.864  98.703 127.870  0.00  0.00    +0.009 C 
ATOM     12  C17 T02     1     141.577 100.085 128.548  0.00  0.00    +0.009 C 
ATOM     13  C18 T02     1     140.504  99.925 129.665  0.00  0.00    +0.023 C 
ATOM     14  C19 T02     1     139.212  99.373 128.997  0.00  0.00    +0.009 C 
ATOM     15  C20 T02     1     139.498  97.992 128.320  0.00  0.00    +0.009 C 
ENDROOT
BRANCH   1  20
ATOM     16  C1  T02     1     142.073  96.481 138.424  0.00  0.00    +0.091 C 
ATOM     17  C2  T02     1     142.371  96.796 136.984  0.00  0.00    +0.169 A 
ATOM     18  N1  T02     1     143.443  96.307 136.372  0.00  0.00    -0.061 NA
ATOM     19  O1  T02     1     143.376  96.823 135.065  0.00  0.00    -0.329 OA
ATOM     20  C3  T02     1     142.244  97.567 135.089  0.00  0.00    +0.298 A 
ATOM     21  N7  T02     1     141.647  97.554 136.227  0.00  0.00    -0.189 NA
ENDBRANCH   1  20
BRANCH   7  22
ATOM     22  O2  T02     1     141.970  95.345 130.126  0.00  0.00    -0.470 OA
BRANCH  22  23
ATOM     23  C9  T02     1     143.208  94.616 130.253  0.00  0.00    +0.267 C 
BRANCH  23  24
ATOM     24  C10 T02     1     144.357  95.552 129.922  0.00  0.00    +0.008 A 
ATOM     25  C11 T02     1     144.500  96.095 128.633  0.00  0.00    +0.010 A 
ATOM     26  C12 T02     1     145.582  96.951 128.378  0.00  0.00    +0.020 A 
ATOM     27  C13 T02     1     146.484  97.232 129.419  0.00  0.00    +0.111 A 
ATOM     28  N4  T02     1     146.355  96.712 130.657  0.00  0.00    -0.263 NA
ATOM     29  C14 T02     1     145.314  95.888 130.898  0.00  0.00    +0.117 A 
ENDBRANCH  23  24
ENDBRANCH  22  23
ENDBRANCH   7  22
TORSDOF 4
ENDMDL
MODEL 6
REMARK VINA RESULT:    -7.121      3.673      7.937
REMARK INTER + INTRA:         -10.050
REMARK INTER:                  -9.002
REMARK INTRA:                  -1.048
REMARK UNBOUND:                -1.264
REMARK  Name = ligands_pdb/TRN_CHEMBL121277.pdb
REMARK  5 active torsions:
REMARK  status: ('A' for Active; 'I' for Inactive)
REMARK    1  A    between atoms: C1_1  and  C2_2
REMARK    2  A    between atoms: C3_5  and  C4_6
REMARK    3  A    between atoms: C8_12  and  O2_13
REMARK    4  A    between atoms: O2_13  and  C9_14
REMARK    5  A    between atoms: C9_14  and  C10_15
REMARK                            x       y       z     vdW  Elec       q    Type
REMARK                         _______ _______ _______ _____ _____    ______ ____
ROOT
ATOM      1  C4  T02     1     139.790  98.270 128.832  0.00  0.00    +0.243 A 
ATOM      2  N2  T02     1     139.299  99.450 129.191  0.00  0.00    -0.122 NA
ATOM      3  N3  T02     1     139.798  99.743 130.440  0.00  0.00    -0.127 NA
ATOM      4  C5  T02     1     140.561  98.716 130.751  0.00  0.00    +0.182 A 
ATOM      5  C6  T02     1     141.297  98.559 131.957  0.00  0.00    +0.010 A 
ATOM      6  C7  T02     1     142.020  97.392 132.044  0.00  0.00    +0.026 A 
ATOM      7  C8  T02     1     142.009  96.455 131.012  0.00  0.00    +0.237 A 
ATOM      8  N5  T02     1     141.326  96.568 129.858  0.00  0.00    -0.125 NA
ATOM      9  N6  T02     1     140.615  97.740 129.799  0.00  0.00    -0.185 N 
ATOM     10  C15 T02     1     142.786  97.278 133.349  0.00  0.00    +0.025 C 
ATOM     11  C16 T02     1     141.744  97.382 134.503  0.00  0.00    +0.009 C 
ATOM     12  C17 T02     1     140.910  98.701 134.372  0.00  0.00    +0.009 C 
ATOM     13  C18 T02     1     141.372  99.511 133.125  0.00  0.00    +0.023 C 
ATOM     14  C19 T02     1     142.881  99.843 133.316  0.00  0.00    +0.009 C 
ATOM     15  C20 T02     1     143.715  98.525 133.445  0.00  0.00    +0.009 C 
ENDROOT
BRANCH   1  20
ATOM     16  C1  T02     1     138.082  95.254 125.425  0.00  0.00    +0.091 C 
ATOM     17  C2  T02     1     138.729  96.426 126.111  0.00  0.00    +0.169 A 
ATOM     18  N1  T02     1     139.265  97.426 125.424  0.00  0.00    -0.061 NA
ATOM     19  O1  T02     1     139.764  98.307 126.401  0.00  0.00    -0.329 OA
ATOM     20  C3  T02     1     139.446  97.684 127.561  0.00  0.00    +0.298 A 
ATOM     21  N7  T02     1     138.833  96.568 127.392  0.00  0.00    -0.189 NA
ENDBRANCH   1  20
BRANCH   7  22
ATOM     22  O2  T02     1     142.758  95.314 131.176  0.00  0.00    -0.470 OA
BRANCH  22  23
ATOM     23  C9  T02     1     143.649  94.807 130.161  0.00  0.00    +0.267 C 
BRANCH  23  24
ATOM     24  C10 T02     1     145.076  94.935 130.661  0.00  0.00    +0.008 A 
ATOM     25  C11 T02     1     145.349  95.372 131.969  0.00  0.00    +0.010 A 
ATOM     26  C12 T02     1     146.687  95.477 132.381  0.00  0.00    +0.020 A 
ATOM     27  C13 T02     1     147.704  95.144 131.470  0.00  0.00    +0.111 A 
ATOM     28  N4  T02     1     147.450  94.728 130.212  0.00  0.00    -0.263 NA
ATOM     29  C14 T02     1     146.163  94.629 129.819  0.00  0.00    +0.117 A 
ENDBRANCH  23  24
ENDBRANCH  22  23
ENDBRANCH   7  22
TORSDOF 4
ENDMDL
MODEL 7
REMARK VINA RESULT:    -7.067      2.664      6.399
REMARK INTER + INTRA:          -9.983
REMARK INTER:                  -9.143
REMARK INTRA:                  -0.840
REMARK UNBOUND:                -1.264
REMARK  Name = ligands_pdb/TRN_CHEMBL121277.pdb
REMARK  5 active torsions:
REMARK  status: ('A' for Active; 'I' for Inactive)
REMARK    1  A    between atoms: C1_1  and  C2_2
REMARK    2  A    between atoms: C3_5  and  C4_6
REMARK    3  A    between atoms: C8_12  and  O2_13
REMARK    4  A    between atoms: O2_13  and  C9_14
REMARK    5  A    between atoms: C9_14  and  C10_15
REMARK                            x       y       z     vdW  Elec       q    Type
REMARK                         _______ _______ _______ _____ _____    ______ ____
ROOT
ATOM      1  C4  T02     1     144.831  96.664 129.602  0.00  0.00    +0.243 A 
ATOM      2  N2  T02     1     144.706  96.718 128.281  0.00  0.00    -0.122 NA
ATOM      3  N3  T02     1     143.409  97.086 128.003  0.00  0.00    -0.127 NA
ATOM      4  C5  T02     1     142.837  97.230 129.181  0.00  0.00    +0.182 A 
ATOM      5  C6  T02     1     141.485  97.605 129.410  0.00  0.00    +0.010 A 
ATOM      6  C7  T02     1     141.126  97.687 130.735  0.00  0.00    +0.026 A 
ATOM      7  C8  T02     1     142.041  97.415 131.752  0.00  0.00    +0.237 A 
ATOM      8  N5  T02     1     143.326  97.057 131.573  0.00  0.00    -0.125 NA
ATOM      9  N6  T02     1     143.656  96.984 130.244  0.00  0.00    -0.185 N 
ATOM     10  C15 T02     1     139.675  98.091 130.922  0.00  0.00    +0.025 C 
ATOM     11  C16 T02     1     138.806  97.042 130.166  0.00  0.00    +0.009 C 
ATOM     12  C17 T02     1     139.247  96.941 128.668  0.00  0.00    +0.009 C 
ATOM     13  C18 T02     1     140.424  97.918 128.383  0.00  0.00    +0.023 C 
ATOM     14  C19 T02     1     139.925  99.357 128.703  0.00  0.00    +0.009 C 
ATOM     15  C20 T02     1     139.486  99.460 130.201  0.00  0.00    +0.009 C 
ENDROOT
BRANCH   1  20
ATOM     16  C1  T02     1     148.343  94.180 131.863  0.00  0.00    +0.091 C 
ATOM     17  C2  T02     1     147.580  95.267 131.158  0.00  0.00    +0.169 A 
ATOM     18  N1  T02     1     148.124  96.452 130.912  0.00  0.00    -0.061 NA
ATOM     19  O1  T02     1     147.115  97.182 130.257  0.00  0.00    -0.329 OA
ATOM     20  C3  T02     1     146.086  96.301 130.209  0.00  0.00    +0.298 A 
ATOM     21  N7  T02     1     146.360  95.165 130.743  0.00  0.00    -0.189 NA
ENDBRANCH   1  20
BRANCH   7  22
ATOM     22  O2  T02     1     141.604  97.519 133.050  0.00  0.00    -0.470 OA
BRANCH  22  23
ATOM     23  C9  T02     1     142.230  98.381 134.023  0.00  0.00    +0.267 C 
BRANCH  23  24
ATOM     24  C10 T02     1     142.614  97.547 135.233  0.00  0.00    +0.008 A 
ATOM     25  C11 T02     1     141.809  97.530 136.385  0.00  0.00    +0.010 A 
ATOM     26  C12 T02     1     142.211  96.746 137.478  0.00  0.00    +0.020 A 
ATOM     27  C13 T02     1     143.404  96.009 137.380  0.00  0.00    +0.111 A 
ATOM     28  N4  T02     1     144.183  96.024 136.279  0.00  0.00    -0.263 NA
ATOM     29  C14 T02     1     143.794  96.780 135.231  0.00  0.00    +0.117 A 
ENDBRANCH  23  24
ENDBRANCH  22  23
ENDBRANCH   7  22
TORSDOF 4
ENDMDL
MODEL 8
REMARK VINA RESULT:    -7.043      3.474      7.332
REMARK INTER + INTRA:          -9.953
REMARK INTER:                  -8.611
REMARK INTRA:                  -1.343
REMARK UNBOUND:                -1.264
REMARK  Name = ligands_pdb/TRN_CHEMBL121277.pdb
REMARK  5 active torsions:
REMARK  status: ('A' for Active; 'I' for Inactive)
REMARK    1  A    between atoms: C1_1  and  C2_2
REMARK    2  A    between atoms: C3_5  and  C4_6
REMARK    3  A    between atoms: C8_12  and  O2_13
REMARK    4  A    between atoms: O2_13  and  C9_14
REMARK    5  A    between atoms: C9_14  and  C10_15
REMARK                            x       y       z     vdW  Elec       q    Type
REMARK                         _______ _______ _______ _____ _____    ______ ____
ROOT
ATOM      1  C4  T02     1     139.962  98.714 129.865  0.00  0.00    +0.243 A 
ATOM      2  N2  T02     1     139.781  99.837 130.551  0.00  0.00    -0.122 NA
ATOM      3  N3  T02     1     140.538  99.748 131.697  0.00  0.00    -0.127 NA
ATOM      4  C5  T02     1     141.127  98.573 131.625  0.00  0.00    +0.182 A 
ATOM      5  C6  T02     1     142.017  98.026 132.589  0.00  0.00    +0.010 A 
ATOM      6  C7  T02     1     142.503  96.776 132.284  0.00  0.00    +0.026 A 
ATOM      7  C8  T02     1     142.130  96.122 131.111  0.00  0.00    +0.237 A 
ATOM      8  N5  T02     1     141.291  96.606 130.176  0.00  0.00    -0.125 NA
ATOM      9  N6  T02     1     140.823  97.852 130.507  0.00  0.00    -0.185 N 
ATOM     10  C15 T02     1     143.447  96.243 133.345  0.00  0.00    +0.025 C 
ATOM     11  C16 T02     1     142.663  96.229 134.692  0.00  0.00    +0.009 C 
ATOM     12  C17 T02     1     142.093  97.652 135.010  0.00  0.00    +0.009 C 
ATOM     13  C18 T02     1     142.479  98.653 133.882  0.00  0.00    +0.023 C 
ATOM     14  C19 T02     1     144.033  98.698 133.809  0.00  0.00    +0.009 C 
ATOM     15  C20 T02     1     144.604  97.277 133.489  0.00  0.00    +0.009 C 
ENDROOT
BRANCH   1  20
ATOM     16  C1  T02     1     138.145  99.390 125.409  0.00  0.00    +0.091 C 
ATOM     17  C2  T02     1     138.524  98.770 126.726  0.00  0.00    +0.169 A 
ATOM     18  N1  T02     1     138.182  97.525 127.033  0.00  0.00    -0.061 NA
ATOM     19  O1  T02     1     138.702  97.318 128.324  0.00  0.00    -0.329 OA
ATOM     20  C3  T02     1     139.294  98.503 128.606  0.00  0.00    +0.298 A 
ATOM     21  N7  T02     1     139.188  99.367 127.661  0.00  0.00    -0.189 NA
ENDBRANCH   1  20
BRANCH   7  22
ATOM     22  O2  T02     1     142.658  94.875 130.878  0.00  0.00    -0.470 OA
BRANCH  22  23
ATOM     23  C9  T02     1     143.431  94.556 129.703  0.00  0.00    +0.267 C 
BRANCH  23  24
ATOM     24  C10 T02     1     144.699  95.391 129.716  0.00  0.00    +0.008 A 
ATOM     25  C11 T02     1     145.726  95.134 130.641  0.00  0.00    +0.010 A 
ATOM     26  C12 T02     1     146.876  95.939 130.614  0.00  0.00    +0.020 A 
ATOM     27  C13 T02     1     146.958  96.972 129.664  0.00  0.00    +0.111 A 
ATOM     28  N4  T02     1     145.975  97.226 128.776  0.00  0.00    -0.263 NA
ATOM     29  C14 T02     1     144.871  96.452 128.806  0.00  0.00    +0.117 A 
ENDBRANCH  23  24
ENDBRANCH  22  23
ENDBRANCH   7  22
TORSDOF 4
ENDMDL
MODEL 9
REMARK VINA RESULT:    -6.972      3.392      6.338
REMARK INTER + INTRA:          -9.866
REMARK INTER:                  -8.763
REMARK INTRA:                  -1.103
REMARK UNBOUND:                -1.264
REMARK  Name = ligands_pdb/TRN_CHEMBL121277.pdb
REMARK  5 active torsions:
REMARK  status: ('A' for Active; 'I' for Inactive)
REMARK    1  A    between atoms: C1_1  and  C2_2
REMARK    2  A    between atoms: C3_5  and  C4_6
REMARK    3  A    between atoms: C8_12  and  O2_13
REMARK    4  A    between atoms: O2_13  and  C9_14
REMARK    5  A    between atoms: C9_14  and  C10_15
REMARK                            x       y       z     vdW  Elec       q    Type
REMARK                         _______ _______ _______ _____ _____    ______ ____
ROOT
ATOM      1  C4  T02     1     144.947  96.733 128.838  0.00  0.00    +0.243 A 
ATOM      2  N2  T02     1     146.041  97.235 129.399  0.00  0.00    -0.122 NA
ATOM      3  N3  T02     1     145.679  97.747 130.625  0.00  0.00    -0.127 NA
ATOM      4  C5  T02     1     144.386  97.518 130.721  0.00  0.00    +0.182 A 
ATOM      5  C6  T02     1     143.557  97.870 131.819  0.00  0.00    +0.010 A 
ATOM      6  C7  T02     1     142.234  97.520 131.679  0.00  0.00    +0.026 A 
ATOM      7  C8  T02     1     141.773  96.872 130.535  0.00  0.00    +0.237 A 
ATOM      8  N5  T02     1     142.528  96.523 129.475  0.00  0.00    -0.125 NA
ATOM      9  N6  T02     1     143.840  96.884 129.643  0.00  0.00    -0.185 N 
ATOM     10  C15 T02     1     141.395  97.919 132.880  0.00  0.00    +0.025 C 
ATOM     11  C16 T02     1     141.556  99.459 133.060  0.00  0.00    +0.009 C 
ATOM     12  C17 T02     1     143.068  99.842 133.189  0.00  0.00    +0.009 C 
ATOM     13  C18 T02     1     143.958  98.569 133.096  0.00  0.00    +0.023 C 
ATOM     14  C19 T02     1     143.541  97.620 134.257  0.00  0.00    +0.009 C 
ATOM     15  C20 T02     1     142.030  97.235 134.128  0.00  0.00    +0.009 C 
ENDROOT
BRANCH   1  20
ATOM     16  C1  T02     1     143.684  94.881 124.526  0.00  0.00    +0.091 C 
ATOM     17  C2  T02     1     144.488  95.338 125.712  0.00  0.00    +0.169 A 
ATOM     18  N1  T02     1     145.807  95.192 125.757  0.00  0.00    -0.061 NA
ATOM     19  O1  T02     1     146.185  95.725 127.003  0.00  0.00    -0.329 OA
ATOM     20  C3  T02     1     145.003  96.120 127.535  0.00  0.00    +0.298 A 
ATOM     21  N7  T02     1     143.995  95.890 126.772  0.00  0.00    -0.189 NA
ENDBRANCH   1  20
BRANCH   7  22
ATOM     22  O2  T02     1     140.437  96.557 130.471  0.00  0.00    -0.470 OA
BRANCH  22  23
ATOM     23  C9  T02     1     139.605  96.888 129.340  0.00  0.00    +0.267 C 
BRANCH  23  24
ATOM     24  C10 T02     1     139.717  98.379 129.077  0.00  0.00    +0.008 A 
ATOM     25  C11 T02     1     139.310  99.317 130.042  0.00  0.00    +0.010 A 
ATOM     26  C12 T02     1     139.430 100.684 129.746  0.00  0.00    +0.020 A 
ATOM     27  C13 T02     1     139.952 101.064 128.497  0.00  0.00    +0.111 A 
ATOM     28  N4  T02     1     140.341 100.169 127.566  0.00  0.00    -0.263 NA
ATOM     29  C14 T02     1     140.222  98.856 127.853  0.00  0.00    +0.117 A 
ENDBRANCH  23  24
ENDBRANCH  22  23
ENDBRANCH   7  22
TORSDOF 4
ENDMDL
MODEL 10
REMARK VINA RESULT:    -6.898      3.845      8.077
REMARK INTER + INTRA:          -9.775
REMARK INTER:                  -8.398
REMARK INTRA:                  -1.377
REMARK UNBOUND:                -1.264
REMARK  Name = ligands_pdb/TRN_CHEMBL121277.pdb
REMARK  5 active torsions:
REMARK  status: ('A' for Active; 'I' for Inactive)
REMARK    1  A    between atoms: C1_1  and  C2_2
REMARK    2  A    between atoms: C3_5  and  C4_6
REMARK    3  A    between atoms: C8_12  and  O2_13
REMARK    4  A    between atoms: O2_13  and  C9_14
REMARK    5  A    between atoms: C9_14  and  C10_15
REMARK                            x       y       z     vdW  Elec       q    Type
REMARK                         _______ _______ _______ _____ _____    ______ ____
ROOT
ATOM      1  C4  T02     1     142.388  95.705 126.543  0.00  0.00    +0.243 A 
ATOM      2  N2  T02     1     141.163  95.227 126.357  0.00  0.00    -0.122 NA
ATOM      3  N3  T02     1     140.292  96.043 127.044  0.00  0.00    -0.127 NA
ATOM      4  C5  T02     1     141.054  96.961 127.600  0.00  0.00    +0.182 A 
ATOM      5  C6  T02     1     140.605  98.034 128.417  0.00  0.00    +0.010 A 
ATOM      6  C7  T02     1     141.600  98.863 128.880  0.00  0.00    +0.026 A 
ATOM      7  C8  T02     1     142.937  98.640 128.556  0.00  0.00    +0.237 A 
ATOM      8  N5  T02     1     143.400  97.638 127.786  0.00  0.00    -0.125 NA
ATOM      9  N6  T02     1     142.387  96.828 127.339  0.00  0.00    -0.185 N 
ATOM     10  C15 T02     1     141.064  99.988 129.746  0.00  0.00    +0.025 C 
ATOM     11  C16 T02     1     140.285  99.330 130.924  0.00  0.00    +0.009 C 
ATOM     12  C17 T02     1     139.176  98.369 130.380  0.00  0.00    +0.009 C 
ATOM     13  C18 T02     1     139.187  98.357 128.823  0.00  0.00    +0.023 C 
ATOM     14  C19 T02     1     138.922  99.813 128.342  0.00  0.00    +0.009 C 
ATOM     15  C20 T02     1     140.030 100.775 128.885  0.00  0.00    +0.009 C 
ENDROOT
BRANCH   1  20
ATOM     16  C1  T02     1     146.030  94.584 123.527  0.00  0.00    +0.091 C 
ATOM     17  C2  T02     1     145.072  94.575 124.686  0.00  0.00    +0.169 A 
ATOM     18  N1  T02     1     145.154  93.666 125.649  0.00  0.00    -0.061 NA
ATOM     19  O1  T02     1     144.102  93.980 126.530  0.00  0.00    -0.329 OA
ATOM     20  C3  T02     1     143.529  95.060 125.945  0.00  0.00    +0.298 A 
ATOM     21  N7  T02     1     144.101  95.413 124.850  0.00  0.00    -0.189 NA
ENDBRANCH   1  20
BRANCH   7  22
ATOM     22  O2  T02     1     143.871  99.514 129.058  0.00  0.00    -0.470 OA
BRANCH  22  23
ATOM     23  C9  T02     1     144.899  99.115 129.989  0.00  0.00    +0.267 C 
BRANCH  23  24
ATOM     24  C10 T02     1     144.257  98.867 131.342  0.00  0.00    +0.008 A 
ATOM     25  C11 T02     1     143.707  99.925 132.087  0.00  0.00    +0.010 A 
ATOM     26  C12 T02     1     143.129  99.642 133.335  0.00  0.00    +0.020 A 
ATOM     27  C13 T02     1     143.123  98.313 133.793  0.00  0.00    +0.111 A 
ATOM     28  N4  T02     1     143.652  97.294 133.085  0.00  0.00    -0.263 NA
ATOM     29  C14 T02     1     144.208  97.570 131.887  0.00  0.00    +0.117 A 
ENDBRANCH  23  24
ENDBRANCH  22  23
ENDBRANCH   7  22
TORSDOF 4
ENDMDL
