MODEL 1
REMARK VINA RESULT:    -9.314      0.000      0.000
REMARK INTER + INTRA:         -12.551
REMARK INTER:                 -11.491
REMARK INTRA:                  -1.060
REMARK UNBOUND:                -1.060
REMARK  Name = ligands_pdb/TRN_CHEMBL179474.pdb
REMARK  5 active torsions:
REMARK  status: ('A' for Active; 'I' for Inactive)
REMARK    1  A    between atoms: C1_1  and  C2_2
REMARK    2  A    between atoms: C6_7  and  C7_8
REMARK    3  A    between atoms: C7_8  and  O1_9
REMARK    4  A    between atoms: O1_9  and  C8_10
REMARK    5  A    between atoms: C9_13  and  C10_14
REMARK                            x       y       z     vdW  Elec       q    Type
REMARK                         _______ _______ _______ _____ _____    ______ ____
ROOT
ATOM      1  C8  T09     1     141.947  97.005 133.124  0.00  0.00    +0.237 A 
ATOM      2  N2  T09     1     142.174  96.950 134.460  0.00  0.00    -0.125 NA
ATOM      3  N3  T09     1     143.427  96.634 134.870  0.00  0.00    -0.189 N 
ATOM      4  C9  T09     1     144.013  96.458 136.098  0.00  0.00    +0.185 A 
ATOM      5  N4  T09     1     145.338  96.069 135.967  0.00  0.00    -0.127 NA
ATOM      6  N5  T09     1     145.629  95.993 134.686  0.00  0.00    -0.127 NA
ATOM      7  C16 T09     1     144.480  96.329 134.061  0.00  0.00    +0.182 A 
ATOM      8  C17 T09     1     144.264  96.382 132.675  0.00  0.00    +0.010 A 
ATOM      9  C18 T09     1     142.984  96.728 132.205  0.00  0.00    +0.026 A 
ATOM     10  C19 T09     1     142.871  96.747 130.681  0.00  0.00    +0.025 C 
ATOM     11  C20 T09     1     143.273  95.329 130.180  0.00  0.00    +0.009 C 
ATOM     12  C21 T09     1     144.693  94.943 130.708  0.00  0.00    +0.009 C 
ATOM     13  C22 T09     1     145.283  96.091 131.576  0.00  0.00    +0.023 C 
ATOM     14  C23 T09     1     145.360  97.365 130.687  0.00  0.00    +0.009 C 
ATOM     15  C24 T09     1     143.939  97.753 130.161  0.00  0.00    +0.009 C 
ENDROOT
BRANCH   4  16
ATOM     16  C10 T09     1     143.378  96.629 137.411  0.00  0.00    +0.021 A 
ATOM     17  C11 T09     1     142.442  95.682 137.873  0.00  0.00    +0.011 A 
ATOM     18  C12 T09     1     141.830  95.832 139.129  0.00  0.00    +0.001 A 
ATOM     19  C13 T09     1     142.151  96.932 139.939  0.00  0.00    +0.000 A 
ATOM     20  C14 T09     1     143.087  97.877 139.495  0.00  0.00    +0.001 A 
ATOM     21  C15 T09     1     143.698  97.726 138.239  0.00  0.00    +0.011 A 
ENDBRANCH   4  16
BRANCH   1  22
ATOM     22  O1  T09     1     140.703  97.335 132.635  0.00  0.00    -0.469 OA
BRANCH  22  23
ATOM     23  C7  T09     1     140.278  98.704 132.491  0.00  0.00    +0.286 C 
BRANCH  23  30
ATOM     24  C1  T09     1     138.826  97.240 130.268  0.00  0.00    +0.046 C 
ATOM     25  C2  T09     1     139.727  98.438 129.992  0.00  0.00    -0.026 A 
ATOM     26  C3  T09     1     139.899  98.895 128.672  0.00  0.00    +0.007 A 
ATOM     27  C4  T09     1     140.732 100.000 128.437  0.00  0.00    +0.020 A 
ATOM     28  C5  T09     1     141.365 100.612 129.530  0.00  0.00    +0.111 A 
ATOM     29  N1  T09     1     141.207 100.183 130.797  0.00  0.00    -0.256 NA
ATOM     30  C6  T09     1     140.403  99.122 131.031  0.00  0.00    +0.081 A 
ENDBRANCH  23  30
ENDBRANCH  22  23
ENDBRANCH   1  22
TORSDOF 4
ENDMDL
MODEL 2
REMARK VINA RESULT:    -9.233      0.803      1.391
REMARK INTER + INTRA:         -12.451
REMARK INTER:                 -11.389
REMARK INTRA:                  -1.063
REMARK UNBOUND:                -1.060
REMARK  Name = ligands_pdb/TRN_CHEMBL179474.pdb
REMARK  5 active torsions:
REMARK  status: ('A' for Active; 'I' for Inactive)
REMARK    1  A    between atoms: C1_1  and  C2_2
REMARK    2  A    between atoms: C6_7  and  C7_8
REMARK    3  A    between atoms: C7_8  and  O1_9
REMARK    4  A    between atoms: O1_9  and  C8_10
REMARK    5  A    between atoms: C9_13  and  C10_14
REMARK                            x       y       z     vdW  Elec       q    Type
REMARK                         _______ _______ _______ _____ _____    ______ ____
ROOT
ATOM      1  C8  T09     1     141.923  96.892 133.051  0.00  0.00    +0.237 A 
ATOM      2  N2  T09     1     142.152  96.882 134.388  0.00  0.00    -0.125 NA
ATOM      3  N3  T09     1     143.420  96.647 134.805  0.00  0.00    -0.189 N 
ATOM      4  C9  T09     1     144.015  96.533 136.035  0.00  0.00    +0.185 A 
ATOM      5  N4  T09     1     145.360  96.217 135.912  0.00  0.00    -0.127 NA
ATOM      6  N5  T09     1     145.655  96.128 134.633  0.00  0.00    -0.127 NA
ATOM      7  C16 T09     1     144.489  96.384 134.002  0.00  0.00    +0.182 A 
ATOM      8  C17 T09     1     144.272  96.392 132.615  0.00  0.00    +0.010 A 
ATOM      9  C18 T09     1     142.974  96.653 132.138  0.00  0.00    +0.026 A 
ATOM     10  C19 T09     1     142.862  96.630 130.614  0.00  0.00    +0.025 C 
ATOM     11  C20 T09     1     143.344  95.227 130.146  0.00  0.00    +0.009 C 
ATOM     12  C21 T09     1     144.783  94.934 130.682  0.00  0.00    +0.009 C 
ATOM     13  C22 T09     1     145.306  96.134 131.523  0.00  0.00    +0.023 C 
ATOM     14  C23 T09     1     145.311  97.389 130.603  0.00  0.00    +0.009 C 
ATOM     15  C24 T09     1     143.871  97.683 130.070  0.00  0.00    +0.009 C 
ENDROOT
BRANCH   4  16
ATOM     16  C10 T09     1     143.370  96.699 137.345  0.00  0.00    +0.021 A 
ATOM     17  C11 T09     1     142.454  95.733 137.809  0.00  0.00    +0.011 A 
ATOM     18  C12 T09     1     141.833  95.878 139.061  0.00  0.00    +0.001 A 
ATOM     19  C13 T09     1     142.125  96.990 139.866  0.00  0.00    +0.000 A 
ATOM     20  C14 T09     1     143.042  97.953 139.419  0.00  0.00    +0.001 A 
ATOM     21  C15 T09     1     143.661  97.807 138.166  0.00  0.00    +0.011 A 
ENDBRANCH   4  16
BRANCH   1  22
ATOM     22  O1  T09     1     140.662  97.140 132.555  0.00  0.00    -0.469 OA
BRANCH  22  23
ATOM     23  C7  T09     1     140.280  98.435 132.054  0.00  0.00    +0.286 C 
BRANCH  23  30
ATOM     24  C1  T09     1     141.184 100.506 130.033  0.00  0.00    +0.046 C 
ATOM     25  C2  T09     1     140.355  99.292 129.630  0.00  0.00    -0.026 A 
ATOM     26  C3  T09     1     139.991  99.109 128.283  0.00  0.00    +0.007 A 
ATOM     27  C4  T09     1     139.229  97.985 127.930  0.00  0.00    +0.020 A 
ATOM     28  C5  T09     1     138.853  97.081 128.936  0.00  0.00    +0.111 A 
ATOM     29  N1  T09     1     139.197  97.247 130.229  0.00  0.00    -0.256 NA
ATOM     30  C6  T09     1     139.935  98.325 130.574  0.00  0.00    +0.081 A 
ENDBRANCH  23  30
ENDBRANCH  22  23
ENDBRANCH   1  22
TORSDOF 4
ENDMDL
MODEL 3
REMARK VINA RESULT:    -8.337      1.280      1.811
REMARK INTER + INTRA:         -11.346
REMARK INTER:                  -9.788
REMARK INTRA:                  -1.559
REMARK UNBOUND:                -1.060
REMARK  Name = ligands_pdb/TRN_CHEMBL179474.pdb
REMARK  5 active torsions:
REMARK  status: ('A' for Active; 'I' for Inactive)
REMARK    1  A    between atoms: C1_1  and  C2_2
REMARK    2  A    between atoms: C6_7  and  C7_8
REMARK    3  A    between atoms: C7_8  and  O1_9
REMARK    4  A    between atoms: O1_9  and  C8_10
REMARK    5  A    between atoms: C9_13  and  C10_14
REMARK                            x       y       z     vdW  Elec       q    Type
REMARK                         _______ _______ _______ _____ _____    ______ ____
ROOT
ATOM      1  C8  T09     1     142.246  96.386 131.843  0.00  0.00    +0.237 A 
ATOM      2  N2  T09     1     142.388  96.430 133.191  0.00  0.00    -0.125 NA
ATOM      3  N3  T09     1     143.638  96.606 133.685  0.00  0.00    -0.189 N 
ATOM      4  C9  T09     1     144.164  96.670 134.950  0.00  0.00    +0.185 A 
ATOM      5  N4  T09     1     145.545  96.802 134.910  0.00  0.00    -0.127 NA
ATOM      6  N5  T09     1     145.928  96.832 133.651  0.00  0.00    -0.127 NA
ATOM      7  C16 T09     1     144.780  96.711 132.949  0.00  0.00    +0.182 A 
ATOM      8  C17 T09     1     144.653  96.670 131.552  0.00  0.00    +0.010 A 
ATOM      9  C18 T09     1     143.371  96.510 130.996  0.00  0.00    +0.026 A 
ATOM     10  C19 T09     1     143.361  96.476 129.468  0.00  0.00    +0.025 C 
ATOM     11  C20 T09     1     144.294  95.307 129.036  0.00  0.00    +0.009 C 
ATOM     12  C21 T09     1     145.717  95.482 129.659  0.00  0.00    +0.009 C 
ATOM     13  C22 T09     1     145.778  96.772 130.525  0.00  0.00    +0.023 C 
ATOM     14  C23 T09     1     145.436  97.977 129.602  0.00  0.00    +0.009 C 
ATOM     15  C24 T09     1     144.011  97.803 128.981  0.00  0.00    +0.009 C 
ENDROOT
BRANCH   4  16
ATOM     16  C10 T09     1     143.424  96.601 136.217  0.00  0.00    +0.021 A 
ATOM     17  C11 T09     1     142.295  97.419 136.421  0.00  0.00    +0.011 A 
ATOM     18  C12 T09     1     141.577  97.362 137.627  0.00  0.00    +0.001 A 
ATOM     19  C13 T09     1     141.979  96.480 138.642  0.00  0.00    +0.000 A 
ATOM     20  C14 T09     1     143.095  95.654 138.448  0.00  0.00    +0.001 A 
ATOM     21  C15 T09     1     143.813  95.714 137.241  0.00  0.00    +0.011 A 
ENDBRANCH   4  16
BRANCH   1  22
ATOM     22  O1  T09     1     141.004  96.226 131.270  0.00  0.00    -0.469 OA
BRANCH  22  23
ATOM     23  C7  T09     1     140.008  97.266 131.304  0.00  0.00    +0.286 C 
BRANCH  23  30
ATOM     24  C1  T09     1     141.185  99.844 132.381  0.00  0.00    +0.046 C 
ATOM     25  C2  T09     1     140.982  99.610 130.889  0.00  0.00    -0.026 A 
ATOM     26  C3  T09     1     141.349 100.609 129.968  0.00  0.00    +0.007 A 
ATOM     27  C4  T09     1     141.155 100.377 128.598  0.00  0.00    +0.020 A 
ATOM     28  C5  T09     1     140.600  99.153 128.193  0.00  0.00    +0.111 A 
ATOM     29  N1  T09     1     140.246  98.189 129.066  0.00  0.00    -0.256 NA
ATOM     30  C6  T09     1     140.433  98.405 130.387  0.00  0.00    +0.081 A 
ENDBRANCH  23  30
ENDBRANCH  22  23
ENDBRANCH   1  22
TORSDOF 4
ENDMDL
MODEL 4
REMARK VINA RESULT:    -8.179      3.031      8.347
REMARK INTER + INTRA:         -11.152
REMARK INTER:                  -9.574
REMARK INTRA:                  -1.578
REMARK UNBOUND:                -1.060
REMARK  Name = ligands_pdb/TRN_CHEMBL179474.pdb
REMARK  5 active torsions:
REMARK  status: ('A' for Active; 'I' for Inactive)
REMARK    1  A    between atoms: C1_1  and  C2_2
REMARK    2  A    between atoms: C6_7  and  C7_8
REMARK    3  A    between atoms: C7_8  and  O1_9
REMARK    4  A    between atoms: O1_9  and  C8_10
REMARK    5  A    between atoms: C9_13  and  C10_14
REMARK                            x       y       z     vdW  Elec       q    Type
REMARK                         _______ _______ _______ _____ _____    ______ ____
ROOT
ATOM      1  C8  T09     1     140.403  96.783 130.671  0.00  0.00    +0.237 A 
ATOM      2  N2  T09     1     140.112  96.400 129.403  0.00  0.00    -0.125 NA
ATOM      3  N3  T09     1     140.288  97.313 128.416  0.00  0.00    -0.189 N 
ATOM      4  C9  T09     1     140.080  97.305 127.061  0.00  0.00    +0.185 A 
ATOM      5  N4  T09     1     140.366  98.544 126.505  0.00  0.00    -0.127 NA
ATOM      6  N5  T09     1     140.760  99.354 127.464  0.00  0.00    -0.127 NA
ATOM      7  C16 T09     1     140.701  98.600 128.583  0.00  0.00    +0.182 A 
ATOM      8  C17 T09     1     141.009  99.014 129.889  0.00  0.00    +0.010 A 
ATOM      9  C18 T09     1     140.861  98.092 130.941  0.00  0.00    +0.026 A 
ATOM     10  C19 T09     1     141.221  98.659 132.314  0.00  0.00    +0.025 C 
ATOM     11  C20 T09     1     140.310  99.900 132.543  0.00  0.00    +0.009 C 
ATOM     12  C21 T09     1     140.470 100.922 131.370  0.00  0.00    +0.009 C 
ATOM     13  C22 T09     1     141.493 100.395 130.324  0.00  0.00    +0.023 C 
ATOM     14  C23 T09     1     142.851 100.186 131.053  0.00  0.00    +0.009 C 
ATOM     15  C24 T09     1     142.691  99.162 132.225  0.00  0.00    +0.009 C 
ENDROOT
BRANCH   4  16
ATOM     16  C10 T09     1     139.608  96.177 126.247  0.00  0.00    +0.021 A 
ATOM     17  C11 T09     1     138.226  95.941 126.100  0.00  0.00    +0.011 A 
ATOM     18  C12 T09     1     137.760  94.868 125.322  0.00  0.00    +0.001 A 
ATOM     19  C13 T09     1     138.674  94.019 124.678  0.00  0.00    +0.000 A 
ATOM     20  C14 T09     1     140.051  94.249 124.809  0.00  0.00    +0.001 A 
ATOM     21  C15 T09     1     140.515  95.322 125.588  0.00  0.00    +0.011 A 
ENDBRANCH   4  16
BRANCH   1  22
ATOM     22  O1  T09     1     140.263  95.903 131.721  0.00  0.00    -0.469 OA
BRANCH  22  23
ATOM     23  C7  T09     1     141.227  94.865 131.981  0.00  0.00    +0.286 C 
BRANCH  23  30
ATOM     24  C1  T09     1     143.910  95.337 130.651  0.00  0.00    +0.046 C 
ATOM     25  C2  T09     1     143.666  95.672 132.118  0.00  0.00    -0.026 A 
ATOM     26  C3  T09     1     144.705  96.220 132.893  0.00  0.00    +0.007 A 
ATOM     27  C4  T09     1     144.462  96.523 134.241  0.00  0.00    +0.020 A 
ATOM     28  C5  T09     1     143.187  96.267 134.771  0.00  0.00    +0.111 A 
ATOM     29  N1  T09     1     142.185  95.743 134.038  0.00  0.00    -0.256 NA
ATOM     30  C6  T09     1     142.412  95.453 132.738  0.00  0.00    +0.081 A 
ENDBRANCH  23  30
ENDBRANCH  22  23
ENDBRANCH   1  22
TORSDOF 4
ENDMDL
MODEL 5
REMARK VINA RESULT:    -8.060      2.330      4.715
REMARK INTER + INTRA:         -11.005
REMARK INTER:                  -9.383
REMARK INTRA:                  -1.622
REMARK UNBOUND:                -1.060
REMARK  Name = ligands_pdb/TRN_CHEMBL179474.pdb
REMARK  5 active torsions:
REMARK  status: ('A' for Active; 'I' for Inactive)
REMARK    1  A    between atoms: C1_1  and  C2_2
REMARK    2  A    between atoms: C6_7  and  C7_8
REMARK    3  A    between atoms: C7_8  and  O1_9
REMARK    4  A    between atoms: O1_9  and  C8_10
REMARK    5  A    between atoms: C9_13  and  C10_14
REMARK                            x       y       z     vdW  Elec       q    Type
REMARK                         _______ _______ _______ _____ _____    ______ ____
ROOT
ATOM      1  C8  T09     1     141.542  96.048 131.050  0.00  0.00    +0.237 A 
ATOM      2  N2  T09     1     141.854  96.267 132.351  0.00  0.00    -0.125 NA
ATOM      3  N3  T09     1     141.713  97.529 132.827  0.00  0.00    -0.189 N 
ATOM      4  C9  T09     1     141.950  98.124 134.039  0.00  0.00    +0.185 A 
ATOM      5  N4  T09     1     141.695  99.487 133.985  0.00  0.00    -0.127 NA
ATOM      6  N5  T09     1     141.293  99.790 132.769  0.00  0.00    -0.127 NA
ATOM      7  C16 T09     1     141.316  98.614 132.106  0.00  0.00    +0.182 A 
ATOM      8  C17 T09     1     140.986  98.407 130.756  0.00  0.00    +0.010 A 
ATOM      9  C18 T09     1     141.098  97.108 130.228  0.00  0.00    +0.026 A 
ATOM     10  C19 T09     1     140.717  97.009 128.751  0.00  0.00    +0.025 C 
ATOM     11  C20 T09     1     141.641  97.995 127.979  0.00  0.00    +0.009 C 
ATOM     12  C21 T09     1     141.521  99.437 128.571  0.00  0.00    +0.009 C 
ATOM     13  C22 T09     1     140.514  99.458 129.756  0.00  0.00    +0.023 C 
ATOM     14  C23 T09     1     139.137  98.976 129.214  0.00  0.00    +0.009 C 
ATOM     15  C24 T09     1     139.257  97.533 128.624  0.00  0.00    +0.009 C 
ENDROOT
BRANCH   4  16
ATOM     16  C10 T09     1     142.423  97.468 135.266  0.00  0.00    +0.021 A 
ATOM     17  C11 T09     1     141.685  97.590 136.461  0.00  0.00    +0.011 A 
ATOM     18  C12 T09     1     142.124  96.966 137.641  0.00  0.00    +0.001 A 
ATOM     19  C13 T09     1     143.305  96.208 137.637  0.00  0.00    +0.000 A 
ATOM     20  C14 T09     1     144.043  96.072 136.452  0.00  0.00    +0.001 A 
ATOM     21  C15 T09     1     143.603  96.697 135.273  0.00  0.00    +0.011 A 
ENDBRANCH   4  16
BRANCH   1  22
ATOM     22  O1  T09     1     141.646  94.789 130.503  0.00  0.00    -0.469 OA
BRANCH  22  23
ATOM     23  C7  T09     1     142.922  94.180 130.225  0.00  0.00    +0.286 C 
BRANCH  23  30
ATOM     24  C1  T09     1     145.097  96.288 130.095  0.00  0.00    +0.046 C 
ATOM     25  C2  T09     1     144.472  95.694 128.839  0.00  0.00    -0.026 A 
ATOM     26  C3  T09     1     144.908  96.122 127.571  0.00  0.00    +0.007 A 
ATOM     27  C4  T09     1     144.322  95.564 126.425  0.00  0.00    +0.020 A 
ATOM     28  C5  T09     1     143.318  94.595 126.584  0.00  0.00    +0.111 A 
ATOM     29  N1  T09     1     142.895  94.177 127.793  0.00  0.00    -0.256 NA
ATOM     30  C6  T09     1     143.458  94.708 128.900  0.00  0.00    +0.081 A 
ENDBRANCH  23  30
ENDBRANCH  22  23
ENDBRANCH   1  22
TORSDOF 4
ENDMDL
MODEL 6
REMARK VINA RESULT:    -8.027      3.346      7.780
REMARK INTER + INTRA:         -10.964
REMARK INTER:                  -9.612
REMARK INTRA:                  -1.352
REMARK UNBOUND:                -1.060
REMARK  Name = ligands_pdb/TRN_CHEMBL179474.pdb
REMARK  5 active torsions:
REMARK  status: ('A' for Active; 'I' for Inactive)
REMARK    1  A    between atoms: C1_1  and  C2_2
REMARK    2  A    between atoms: C6_7  and  C7_8
REMARK    3  A    between atoms: C7_8  and  O1_9
REMARK    4  A    between atoms: O1_9  and  C8_10
REMARK    5  A    between atoms: C9_13  and  C10_14
REMARK                            x       y       z     vdW  Elec       q    Type
REMARK                         _______ _______ _______ _____ _____    ______ ____
ROOT
ATOM      1  C8  T09     1     141.735  96.181 131.099  0.00  0.00    +0.237 A 
ATOM      2  N2  T09     1     140.946  96.288 130.001  0.00  0.00    -0.125 NA
ATOM      3  N3  T09     1     140.311  97.469 129.798  0.00  0.00    -0.189 N 
ATOM      4  C9  T09     1     139.436  97.930 128.849  0.00  0.00    +0.185 A 
ATOM      5  N4  T09     1     139.023  99.223 129.137  0.00  0.00    -0.127 NA
ATOM      6  N5  T09     1     139.612  99.614 130.247  0.00  0.00    -0.127 NA
ATOM      7  C16 T09     1     140.365  98.556 130.617  0.00  0.00    +0.182 A 
ATOM      8  C17 T09     1     141.179  98.465 131.757  0.00  0.00    +0.010 A 
ATOM      9  C18 T09     1     141.873  97.265 131.995  0.00  0.00    +0.026 A 
ATOM     10  C19 T09     1     142.720  97.285 133.267  0.00  0.00    +0.025 C 
ATOM     11  C20 T09     1     141.757  97.603 134.447  0.00  0.00    +0.009 C 
ATOM     12  C21 T09     1     140.982  98.934 134.179  0.00  0.00    +0.009 C 
ATOM     13  C22 T09     1     141.404  99.545 132.812  0.00  0.00    +0.023 C 
ATOM     14  C23 T09     1     142.936  99.809 132.866  0.00  0.00    +0.009 C 
ATOM     15  C24 T09     1     143.712  98.477 133.132  0.00  0.00    +0.009 C 
ENDROOT
BRANCH   4  16
ATOM     16  C10 T09     1     138.950  97.203 127.668  0.00  0.00    +0.021 A 
ATOM     17  C11 T09     1     139.700  97.212 126.475  0.00  0.00    +0.011 A 
ATOM     18  C12 T09     1     139.249  96.519 125.339  0.00  0.00    +0.001 A 
ATOM     19  C13 T09     1     138.043  95.802 125.387  0.00  0.00    +0.000 A 
ATOM     20  C14 T09     1     137.292  95.778 126.572  0.00  0.00    +0.001 A 
ATOM     21  C15 T09     1     137.744  96.473 127.706  0.00  0.00    +0.011 A 
ENDBRANCH   4  16
BRANCH   1  22
ATOM     22  O1  T09     1     142.422  95.017 131.361  0.00  0.00    -0.469 OA
BRANCH  22  23
ATOM     23  C7  T09     1     143.364  94.459 130.424  0.00  0.00    +0.286 C 
BRANCH  23  30
ATOM     24  C1  T09     1     145.678  95.442 132.118  0.00  0.00    +0.046 C 
ATOM     25  C2  T09     1     145.390  96.014 130.735  0.00  0.00    -0.026 A 
ATOM     26  C3  T09     1     146.214  97.026 130.210  0.00  0.00    +0.007 A 
ATOM     27  C4  T09     1     145.934  97.540 128.935  0.00  0.00    +0.020 A 
ATOM     28  C5  T09     1     144.838  97.024 128.225  0.00  0.00    +0.111 A 
ATOM     29  N1  T09     1     144.043  96.054 128.718  0.00  0.00    -0.256 NA
ATOM     30  C6  T09     1     144.310  95.553 129.944  0.00  0.00    +0.081 A 
ENDBRANCH  23  30
ENDBRANCH  22  23
ENDBRANCH   1  22
TORSDOF 4
ENDMDL
MODEL 7
REMARK VINA RESULT:    -7.736      1.779      2.293
REMARK INTER + INTRA:         -10.605
REMARK INTER:                  -9.187
REMARK INTRA:                  -1.418
REMARK UNBOUND:                -1.060
REMARK  Name = ligands_pdb/TRN_CHEMBL179474.pdb
REMARK  5 active torsions:
REMARK  status: ('A' for Active; 'I' for Inactive)
REMARK    1  A    between atoms: C1_1  and  C2_2
REMARK    2  A    between atoms: C6_7  and  C7_8
REMARK    3  A    between atoms: C7_8  and  O1_9
REMARK    4  A    between atoms: O1_9  and  C8_10
REMARK    5  A    between atoms: C9_13  and  C10_14
REMARK                            x       y       z     vdW  Elec       q    Type
REMARK                         _______ _______ _______ _____ _____    ______ ____
ROOT
ATOM      1  C8  T09     1     143.191  95.596 131.410  0.00  0.00    +0.237 A 
ATOM      2  N2  T09     1     143.156  95.866 132.739  0.00  0.00    -0.125 NA
ATOM      3  N3  T09     1     144.329  96.167 133.348  0.00  0.00    -0.189 N 
ATOM      4  C9  T09     1     144.686  96.457 134.640  0.00  0.00    +0.185 A 
ATOM      5  N4  T09     1     146.058  96.632 134.751  0.00  0.00    -0.127 NA
ATOM      6  N5  T09     1     146.600  96.468 133.563  0.00  0.00    -0.127 NA
ATOM      7  C16 T09     1     145.555  96.191 132.754  0.00  0.00    +0.182 A 
ATOM      8  C17 T09     1     145.610  95.916 131.378  0.00  0.00    +0.010 A 
ATOM      9  C18 T09     1     144.413  95.620 130.701  0.00  0.00    +0.026 A 
ATOM     10  C19 T09     1     144.602  95.334 129.212  0.00  0.00    +0.025 C 
ATOM     11  C20 T09     1     145.600  94.145 129.103  0.00  0.00    +0.009 C 
ATOM     12  C21 T09     1     146.928  94.473 129.860  0.00  0.00    +0.009 C 
ATOM     13  C22 T09     1     146.857  95.890 130.498  0.00  0.00    +0.023 C 
ATOM     14  C23 T09     1     146.618  96.913 129.350  0.00  0.00    +0.009 C 
ATOM     15  C24 T09     1     145.288  96.586 128.594  0.00  0.00    +0.009 C 
ENDROOT
BRANCH   4  16
ATOM     16  C10 T09     1     143.790  96.571 135.798  0.00  0.00    +0.021 A 
ATOM     17  C11 T09     1     144.097  95.897 136.998  0.00  0.00    +0.011 A 
ATOM     18  C12 T09     1     143.251  96.000 138.115  0.00  0.00    +0.001 A 
ATOM     19  C13 T09     1     142.088  96.783 138.045  0.00  0.00    +0.000 A 
ATOM     20  C14 T09     1     141.776  97.465 136.860  0.00  0.00    +0.001 A 
ATOM     21  C15 T09     1     142.623  97.361 135.743  0.00  0.00    +0.011 A 
ENDBRANCH   4  16
BRANCH   1  22
ATOM     22  O1  T09     1     142.036  95.297 130.722  0.00  0.00    -0.469 OA
BRANCH  22  23
ATOM     23  C7  T09     1     140.962  96.248 130.584  0.00  0.00    +0.286 C 
BRANCH  23  30
ATOM     24  C1  T09     1     141.442  96.420 127.596  0.00  0.00    +0.046 C 
ATOM     25  C2  T09     1     141.715  97.596 128.527  0.00  0.00    -0.026 A 
ATOM     26  C3  T09     1     142.201  98.807 128.001  0.00  0.00    +0.007 A 
ATOM     27  C4  T09     1     142.446  99.879 128.872  0.00  0.00    +0.020 A 
ATOM     28  C5  T09     1     142.196  99.704 130.243  0.00  0.00    +0.111 A 
ATOM     29  N1  T09     1     141.730  98.549 130.757  0.00  0.00    -0.256 NA
ATOM     30  C6  T09     1     141.489  97.515 129.922  0.00  0.00    +0.081 A 
ENDBRANCH  23  30
ENDBRANCH  22  23
ENDBRANCH   1  22
TORSDOF 4
ENDMDL
MODEL 8
REMARK VINA RESULT:    -7.658      2.843      5.517
REMARK INTER + INTRA:         -10.508
REMARK INTER:                  -9.103
REMARK INTRA:                  -1.405
REMARK UNBOUND:                -1.060
REMARK  Name = ligands_pdb/TRN_CHEMBL179474.pdb
REMARK  5 active torsions:
REMARK  status: ('A' for Active; 'I' for Inactive)
REMARK    1  A    between atoms: C1_1  and  C2_2
REMARK    2  A    between atoms: C6_7  and  C7_8
REMARK    3  A    between atoms: C7_8  and  O1_9
REMARK    4  A    between atoms: O1_9  and  C8_10
REMARK    5  A    between atoms: C9_13  and  C10_14
REMARK                            x       y       z     vdW  Elec       q    Type
REMARK                         _______ _______ _______ _____ _____    ______ ____
ROOT
ATOM      1  C8  T09     1     143.120  96.191 130.962  0.00  0.00    +0.237 A 
ATOM      2  N2  T09     1     144.274  95.484 131.043  0.00  0.00    -0.125 NA
ATOM      3  N3  T09     1     145.115  95.773 132.066  0.00  0.00    -0.189 N 
ATOM      4  C9  T09     1     146.348  95.308 132.448  0.00  0.00    +0.185 A 
ATOM      5  N4  T09     1     146.818  95.994 133.558  0.00  0.00    -0.127 NA
ATOM      6  N5  T09     1     145.920  96.889 133.910  0.00  0.00    -0.127 NA
ATOM      7  C16 T09     1     144.926  96.738 133.008  0.00  0.00    +0.182 A 
ATOM      8  C17 T09     1     143.735  97.479 132.941  0.00  0.00    +0.010 A 
ATOM      9  C18 T09     1     142.823  97.197 131.908  0.00  0.00    +0.026 A 
ATOM     10  C19 T09     1     141.569  98.071 131.937  0.00  0.00    +0.025 C 
ATOM     11  C20 T09     1     142.047  99.550 131.856  0.00  0.00    +0.009 C 
ATOM     12  C21 T09     1     143.066  99.861 133.001  0.00  0.00    +0.009 C 
ATOM     13  C22 T09     1     143.298  98.600 133.882  0.00  0.00    +0.023 C 
ATOM     14  C23 T09     1     141.923  98.177 134.475  0.00  0.00    +0.009 C 
ATOM     15  C24 T09     1     140.905  97.864 133.330  0.00  0.00    +0.009 C 
ENDROOT
BRANCH   4  16
ATOM     16  C10 T09     1     147.125  94.239 131.806  0.00  0.00    +0.021 A 
ATOM     17  C11 T09     1     147.581  94.395 130.481  0.00  0.00    +0.011 A 
ATOM     18  C12 T09     1     148.328  93.382 129.856  0.00  0.00    +0.001 A 
ATOM     19  C13 T09     1     148.632  92.203 130.553  0.00  0.00    +0.000 A 
ATOM     20  C14 T09     1     148.192  92.040 131.875  0.00  0.00    +0.001 A 
ATOM     21  C15 T09     1     147.444  93.053 132.498  0.00  0.00    +0.011 A 
ENDBRANCH   4  16
BRANCH   1  22
ATOM     22  O1  T09     1     142.210  95.941 129.958  0.00  0.00    -0.469 OA
BRANCH  22  23
ATOM     23  C7  T09     1     142.378  96.466 128.627  0.00  0.00    +0.286 C 
BRANCH  23  30
ATOM     24  C1  T09     1     143.154  99.387 128.391  0.00  0.00    +0.046 C 
ATOM     25  C2  T09     1     141.707  98.924 128.271  0.00  0.00    -0.026 A 
ATOM     26  C3  T09     1     140.687  99.866 128.040  0.00  0.00    +0.007 A 
ATOM     27  C4  T09     1     139.361  99.421 127.932  0.00  0.00    +0.020 A 
ATOM     28  C5  T09     1     139.097  98.048 128.058  0.00  0.00    +0.111 A 
ATOM     29  N1  T09     1     140.066  97.138 128.278  0.00  0.00    -0.256 NA
ATOM     30  C6  T09     1     141.346  97.559 128.380  0.00  0.00    +0.081 A 
ENDBRANCH  23  30
ENDBRANCH  22  23
ENDBRANCH   1  22
TORSDOF 4
ENDMDL
MODEL 9
REMARK VINA RESULT:    -7.591      3.684      9.007
REMARK INTER + INTRA:         -10.426
REMARK INTER:                  -9.131
REMARK INTRA:                  -1.295
REMARK UNBOUND:                -1.060
REMARK  Name = ligands_pdb/TRN_CHEMBL179474.pdb
REMARK  5 active torsions:
REMARK  status: ('A' for Active; 'I' for Inactive)
REMARK    1  A    between atoms: C1_1  and  C2_2
REMARK    2  A    between atoms: C6_7  and  C7_8
REMARK    3  A    between atoms: C7_8  and  O1_9
REMARK    4  A    between atoms: O1_9  and  C8_10
REMARK    5  A    between atoms: C9_13  and  C10_14
REMARK                            x       y       z     vdW  Elec       q    Type
REMARK                         _______ _______ _______ _____ _____    ______ ____
ROOT
ATOM      1  C8  T09     1     140.413  96.920 129.457  0.00  0.00    +0.237 A 
ATOM      2  N2  T09     1     140.144  96.201 128.340  0.00  0.00    -0.125 NA
ATOM      3  N3  T09     1     139.838  96.887 127.211  0.00  0.00    -0.189 N 
ATOM      4  C9  T09     1     139.488  96.520 125.937  0.00  0.00    +0.185 A 
ATOM      5  N4  T09     1     139.209  97.633 125.156  0.00  0.00    -0.127 NA
ATOM      6  N5  T09     1     139.373  98.713 125.890  0.00  0.00    -0.127 NA
ATOM      7  C16 T09     1     139.742  98.241 127.101  0.00  0.00    +0.182 A 
ATOM      8  C17 T09     1     140.020  99.003 128.247  0.00  0.00    +0.010 A 
ATOM      9  C18 T09     1     140.363  98.332 129.435  0.00  0.00    +0.026 A 
ATOM     10  C19 T09     1     140.638  99.266 130.613  0.00  0.00    +0.025 C 
ATOM     11  C20 T09     1     139.355 100.122 130.820  0.00  0.00    +0.009 C 
ATOM     12  C21 T09     1     138.970 100.863 129.498  0.00  0.00    +0.009 C 
ATOM     13  C22 T09     1     139.985 100.524 128.369  0.00  0.00    +0.023 C 
ATOM     14  C23 T09     1     141.396 100.968 128.852  0.00  0.00    +0.009 C 
ATOM     15  C24 T09     1     141.781 100.226 130.173  0.00  0.00    +0.009 C 
ENDROOT
BRANCH   4  16
ATOM     16  C10 T09     1     139.392  95.154 125.407  0.00  0.00    +0.021 A 
ATOM     17  C11 T09     1     140.556  94.471 124.998  0.00  0.00    +0.011 A 
ATOM     18  C12 T09     1     140.478  93.162 124.492  0.00  0.00    +0.001 A 
ATOM     19  C13 T09     1     139.235  92.520 124.394  0.00  0.00    +0.000 A 
ATOM     20  C14 T09     1     138.071  93.185 124.807  0.00  0.00    +0.001 A 
ATOM     21  C15 T09     1     138.150  94.494 125.311  0.00  0.00    +0.011 A 
ENDBRANCH   4  16
BRANCH   1  22
ATOM     22  O1  T09     1     140.747  96.291 130.636  0.00  0.00    -0.469 OA
BRANCH  22  23
ATOM     23  C7  T09     1     142.047  95.706 130.848  0.00  0.00    +0.286 C 
BRANCH  23  30
ATOM     24  C1  T09     1     144.368  97.646 130.639  0.00  0.00    +0.046 C 
ATOM     25  C2  T09     1     143.775  97.238 131.982  0.00  0.00    -0.026 A 
ATOM     26  C3  T09     1     144.305  97.770 133.172  0.00  0.00    +0.007 A 
ATOM     27  C4  T09     1     143.747  97.383 134.400  0.00  0.00    +0.020 A 
ATOM     28  C5  T09     1     142.675  96.477 134.398  0.00  0.00    +0.111 A 
ATOM     29  N1  T09     1     142.158  95.962 133.264  0.00  0.00    -0.256 NA
ATOM     30  C6  T09     1     142.690  96.333 132.079  0.00  0.00    +0.081 A 
ENDBRANCH  23  30
ENDBRANCH  22  23
ENDBRANCH   1  22
TORSDOF 4
ENDMDL
MODEL 10
REMARK VINA RESULT:    -7.570      3.557      8.134
REMARK INTER + INTRA:         -10.400
REMARK INTER:                  -8.754
REMARK INTRA:                  -1.646
REMARK UNBOUND:                -1.060
REMARK  Name = ligands_pdb/TRN_CHEMBL179474.pdb
REMARK  5 active torsions:
REMARK  status: ('A' for Active; 'I' for Inactive)
REMARK    1  A    between atoms: C1_1  and  C2_2
REMARK    2  A    between atoms: C6_7  and  C7_8
REMARK    3  A    between atoms: C7_8  and  O1_9
REMARK    4  A    between atoms: O1_9  and  C8_10
REMARK    5  A    between atoms: C9_13  and  C10_14
REMARK                            x       y       z     vdW  Elec       q    Type
REMARK                         _______ _______ _______ _____ _____    ______ ____
ROOT
ATOM      1  C8  T09     1     142.809  98.475 128.903  0.00  0.00    +0.237 A 
ATOM      2  N2  T09     1     143.592  97.658 128.157  0.00  0.00    -0.125 NA
ATOM      3  N3  T09     1     142.976  96.695 127.426  0.00  0.00    -0.189 N 
ATOM      4  C9  T09     1     143.419  95.694 126.600  0.00  0.00    +0.185 A 
ATOM      5  N4  T09     1     142.362  94.925 126.137  0.00  0.00    -0.127 NA
ATOM      6  N5  T09     1     141.243  95.404 126.637  0.00  0.00    -0.127 NA
ATOM      7  C16 T09     1     141.637  96.448 127.398  0.00  0.00    +0.182 A 
ATOM      8  C17 T09     1     140.810  97.287 128.163  0.00  0.00    +0.010 A 
ATOM      9  C18 T09     1     141.406  98.312 128.919  0.00  0.00    +0.026 A 
ATOM     10  C19 T09     1     140.406  99.153 129.713  0.00  0.00    +0.025 C 
ATOM     11  C20 T09     1     139.626  98.174 130.638  0.00  0.00    +0.009 C 
ATOM     12  C21 T09     1     138.969  97.031 129.797  0.00  0.00    +0.009 C 
ATOM     13  C22 T09     1     139.290  97.212 128.286  0.00  0.00    +0.023 C 
ATOM     14  C23 T09     1     138.736  98.598 127.847  0.00  0.00    +0.009 C 
ATOM     15  C24 T09     1     139.394  99.741 128.687  0.00  0.00    +0.009 C 
ENDROOT
BRANCH   4  16
ATOM     16  C10 T09     1     144.811  95.411 126.225  0.00  0.00    +0.021 A 
ATOM     17  C11 T09     1     145.748  95.042 127.211  0.00  0.00    +0.011 A 
ATOM     18  C12 T09     1     147.082  94.766 126.865  0.00  0.00    +0.001 A 
ATOM     19  C13 T09     1     147.492  94.852 125.526  0.00  0.00    +0.000 A 
ATOM     20  C14 T09     1     146.567  95.209 124.534  0.00  0.00    +0.001 A 
ATOM     21  C15 T09     1     145.234  95.486 124.882  0.00  0.00    +0.011 A 
ENDBRANCH   4  16
BRANCH   1  22
ATOM     22  O1  T09     1     143.364  99.485 129.658  0.00  0.00    -0.469 OA
BRANCH  22  23
ATOM     23  C7  T09     1     144.131  99.216 130.847  0.00  0.00    +0.286 C 
BRANCH  23  30
ATOM     24  C1  T09     1     143.774  96.347 131.761  0.00  0.00    +0.046 C 
ATOM     25  C2  T09     1     143.019  97.501 132.410  0.00  0.00    -0.026 A 
ATOM     26  C3  T09     1     142.127  97.246 133.468  0.00  0.00    +0.007 A 
ATOM     27  C4  T09     1     141.441  98.321 134.054  0.00  0.00    +0.020 A 
ATOM     28  C5  T09     1     141.669  99.616 133.562  0.00  0.00    +0.111 A 
ATOM     29  N1  T09     1     142.521  99.870 132.550  0.00  0.00    -0.256 NA
ATOM     30  C6  T09     1     143.187  98.840 131.984  0.00  0.00    +0.081 A 
ENDBRANCH  23  30
ENDBRANCH  22  23
ENDBRANCH   1  22
TORSDOF 4
ENDMDL
