MODEL 1
REMARK VINA RESULT:    -8.931      0.000      0.000
REMARK INTER + INTRA:         -12.845
REMARK INTER:                 -11.541
REMARK INTRA:                  -1.304
REMARK UNBOUND:                -1.304
REMARK  Name = ligands_pdb/TRN_CHEMBL332893.pdb
REMARK  7 active torsions:
REMARK  status: ('A' for Active; 'I' for Inactive)
REMARK    1  A    between atoms: C1_1  and  C2_2
REMARK    2  A    between atoms: C2_2  and  C3_3
REMARK    3  A    between atoms: C4_6  and  C5_7
REMARK    4  A    between atoms: C9_13  and  O2_14
REMARK    5  A    between atoms: O2_14  and  C10_15
REMARK    6  A    between atoms: C10_15  and  C11_16
REMARK    7  A    between atoms: C15_20  and  C16_21
REMARK                            x       y       z     vdW  Elec       q    Type
REMARK                         _______ _______ _______ _____ _____    ______ ____
ROOT
ATOM      1  C5  T13     1     144.518  96.774 134.942  0.00  0.00    +0.243 A 
ATOM      2  N2  T13     1     145.888  96.669 134.740  0.00  0.00    -0.122 NA
ATOM      3  N3  T13     1     146.128  96.672 133.447  0.00  0.00    -0.127 NA
ATOM      4  C6  T13     1     144.906  96.778 132.880  0.00  0.00    +0.182 A 
ATOM      5  C7  T13     1     144.621  96.823 131.506  0.00  0.00    +0.010 A 
ATOM      6  C8  T13     1     143.279  96.935 131.099  0.00  0.00    +0.026 A 
ATOM      7  C9  T13     1     142.252  96.999 132.068  0.00  0.00    +0.237 A 
ATOM      8  N5  T13     1     142.547  96.955 133.391  0.00  0.00    -0.125 NA
ATOM      9  N6  T13     1     143.853  96.846 133.741  0.00  0.00    -0.185 N 
ATOM     10  C17 T13     1     143.097  96.975 129.583  0.00  0.00    +0.025 C 
ATOM     11  C18 T13     1     143.735  95.674 129.016  0.00  0.00    +0.009 C 
ATOM     12  C19 T13     1     145.225  95.549 129.473  0.00  0.00    +0.009 C 
ATOM     13  C20 T13     1     145.627  96.763 130.359  0.00  0.00    +0.023 C 
ATOM     14  C21 T13     1     145.422  98.054 129.514  0.00  0.00    +0.009 C 
ATOM     15  C22 T13     1     143.932  98.178 129.057  0.00  0.00    +0.009 C 
ENDROOT
BRANCH   1  19
ATOM     16  C3  T13     1     142.883  96.470 137.930  0.00  0.00    +0.172 A 
ATOM     17  N1  T13     1     143.673  97.546 138.271  0.00  0.00    -0.061 NA
ATOM     18  O1  T13     1     144.378  97.729 137.083  0.00  0.00    -0.329 OA
ATOM     19  C4  T13     1     143.966  96.798 136.196  0.00  0.00    +0.298 A 
ATOM     20  N7  T13     1     143.041  96.007 136.696  0.00  0.00    -0.189 NA
BRANCH  16  22
ATOM     21  C1  T13     1     141.827  96.686 140.216  0.00  0.00    +0.012 C 
ATOM     22  C2  T13     1     141.904  95.874 138.907  0.00  0.00    +0.076 C 
ENDBRANCH  16  22
ENDBRANCH   1  19
BRANCH   7  23
ATOM     23  O2  T13     1     140.946  97.108 131.642  0.00  0.00    -0.469 OA
BRANCH  23  24
ATOM     24  C10 T13     1     140.195  98.330 131.792  0.00  0.00    +0.286 C 
BRANCH  24  25
ATOM     25  C11 T13     1     140.252  99.182 130.528  0.00  0.00    +0.079 A 
ATOM     26  C12 T13     1     141.136 100.271 130.378  0.00  0.00    +0.027 A 
ATOM     27  C13 T13     1     141.120 101.000 129.178  0.00  0.00    +0.004 A 
ATOM     28  C14 T13     1     140.222 100.618 128.170  0.00  0.00    +0.023 A 
ATOM     29  C15 T13     1     139.371  99.522 128.400  0.00  0.00    +0.039 A 
ATOM     30  C16 T13     1     138.383  99.058 127.343  0.00  0.00    +0.065 C 
ATOM     31  N4  T13     1     139.390  98.820 129.553  0.00  0.00    -0.253 NA
ENDBRANCH  24  25
ENDBRANCH  23  24
ENDBRANCH   7  23
TORSDOF 5
ENDMDL
MODEL 2
REMARK VINA RESULT:    -8.900      1.218      1.639
REMARK INTER + INTRA:         -12.806
REMARK INTER:                 -11.272
REMARK INTRA:                  -1.534
REMARK UNBOUND:                -1.304
REMARK  Name = ligands_pdb/TRN_CHEMBL332893.pdb
REMARK  7 active torsions:
REMARK  status: ('A' for Active; 'I' for Inactive)
REMARK    1  A    between atoms: C1_1  and  C2_2
REMARK    2  A    between atoms: C2_2  and  C3_3
REMARK    3  A    between atoms: C4_6  and  C5_7
REMARK    4  A    between atoms: C9_13  and  O2_14
REMARK    5  A    between atoms: O2_14  and  C10_15
REMARK    6  A    between atoms: C10_15  and  C11_16
REMARK    7  A    between atoms: C15_20  and  C16_21
REMARK                            x       y       z     vdW  Elec       q    Type
REMARK                         _______ _______ _______ _____ _____    ______ ____
ROOT
ATOM      1  C5  T13     1     144.367  96.823 134.813  0.00  0.00    +0.243 A 
ATOM      2  N2  T13     1     145.299  95.865 134.437  0.00  0.00    -0.122 NA
ATOM      3  N3  T13     1     145.455  95.915 133.131  0.00  0.00    -0.127 NA
ATOM      4  C6  T13     1     144.620  96.898 132.732  0.00  0.00    +0.182 A 
ATOM      5  C7  T13     1     144.418  97.343 131.416  0.00  0.00    +0.010 A 
ATOM      6  C8  T13     1     143.501  98.386 131.189  0.00  0.00    +0.026 A 
ATOM      7  C9  T13     1     142.807  98.962 132.277  0.00  0.00    +0.237 A 
ATOM      8  N5  T13     1     143.016  98.520 133.541  0.00  0.00    -0.125 NA
ATOM      9  N6  T13     1     143.907  97.513 133.717  0.00  0.00    -0.185 N 
ATOM     10  C17 T13     1     143.369  98.779 129.719  0.00  0.00    +0.025 C 
ATOM     11  C18 T13     1     142.945  97.499 128.943  0.00  0.00    +0.009 C 
ATOM     12  C19 T13     1     143.963  96.340 129.199  0.00  0.00    +0.009 C 
ATOM     13  C20 T13     1     145.096  96.812 130.155  0.00  0.00    +0.023 C 
ATOM     14  C21 T13     1     145.807  98.023 129.484  0.00  0.00    +0.009 C 
ATOM     15  C22 T13     1     144.789  99.182 129.227  0.00  0.00    +0.009 C 
ENDROOT
BRANCH   1  19
ATOM     16  C3  T13     1     143.133  96.947 138.000  0.00  0.00    +0.172 A 
ATOM     17  N1  T13     1     144.085  97.933 138.142  0.00  0.00    -0.061 NA
ATOM     18  O1  T13     1     144.637  97.938 136.863  0.00  0.00    -0.329 OA
ATOM     19  C4  T13     1     143.999  97.007 136.121  0.00  0.00    +0.298 A 
ATOM     20  N7  T13     1     143.065  96.381 136.802  0.00  0.00    -0.189 NA
BRANCH  16  22
ATOM     21  C1  T13     1     141.856  97.762 140.023  0.00  0.00    +0.012 C 
ATOM     22  C2  T13     1     142.234  96.554 139.142  0.00  0.00    +0.076 C 
ENDBRANCH  16  22
ENDBRANCH   1  19
BRANCH   7  23
ATOM     23  O2  T13     1     141.914  99.982 132.027  0.00  0.00    -0.469 OA
BRANCH  23  24
ATOM     24  C10 T13     1     140.487  99.776 132.086  0.00  0.00    +0.286 C 
BRANCH  24  25
ATOM     25  C11 T13     1     139.992  98.940 130.910  0.00  0.00    +0.079 A 
ATOM     26  C12 T13     1     139.651  97.576 131.031  0.00  0.00    +0.027 A 
ATOM     27  C13 T13     1     139.202  96.884 129.894  0.00  0.00    +0.004 A 
ATOM     28  C14 T13     1     139.112  97.577 128.676  0.00  0.00    +0.023 A 
ATOM     29  C15 T13     1     139.475  98.936 128.641  0.00  0.00    +0.039 A 
ATOM     30  C16 T13     1     139.392  99.737 127.353  0.00  0.00    +0.065 C 
ATOM     31  N4  T13     1     139.903  99.600 129.735  0.00  0.00    -0.253 NA
ENDBRANCH  24  25
ENDBRANCH  23  24
ENDBRANCH   7  23
TORSDOF 5
ENDMDL
MODEL 3
REMARK VINA RESULT:    -8.418      1.629      2.101
REMARK INTER + INTRA:         -12.183
REMARK INTER:                 -11.510
REMARK INTRA:                  -0.673
REMARK UNBOUND:                -1.304
REMARK  Name = ligands_pdb/TRN_CHEMBL332893.pdb
REMARK  7 active torsions:
REMARK  status: ('A' for Active; 'I' for Inactive)
REMARK    1  A    between atoms: C1_1  and  C2_2
REMARK    2  A    between atoms: C2_2  and  C3_3
REMARK    3  A    between atoms: C4_6  and  C5_7
REMARK    4  A    between atoms: C9_13  and  O2_14
REMARK    5  A    between atoms: O2_14  and  C10_15
REMARK    6  A    between atoms: C10_15  and  C11_16
REMARK    7  A    between atoms: C15_20  and  C16_21
REMARK                            x       y       z     vdW  Elec       q    Type
REMARK                         _______ _______ _______ _____ _____    ______ ____
ROOT
ATOM      1  C5  T13     1     143.610  97.272 134.182  0.00  0.00    +0.243 A 
ATOM      2  N2  T13     1     144.962  97.037 133.971  0.00  0.00    -0.122 NA
ATOM      3  N3  T13     1     145.228  97.207 132.694  0.00  0.00    -0.127 NA
ATOM      4  C6  T13     1     144.040  97.543 132.147  0.00  0.00    +0.182 A 
ATOM      5  C7  T13     1     143.790  97.831 130.796  0.00  0.00    +0.010 A 
ATOM      6  C8  T13     1     142.480  98.163 130.407  0.00  0.00    +0.026 A 
ATOM      7  C9  T13     1     141.448  98.201 131.371  0.00  0.00    +0.237 A 
ATOM      8  N5  T13     1     141.707  97.921 132.672  0.00  0.00    -0.125 NA
ATOM      9  N6  T13     1     142.983  97.605 133.006  0.00  0.00    -0.185 N 
ATOM     10  C17 T13     1     142.336  98.454 128.914  0.00  0.00    +0.025 C 
ATOM     11  C18 T13     1     142.829  97.187 128.156  0.00  0.00    +0.009 C 
ATOM     12  C19 T13     1     144.284  96.818 128.592  0.00  0.00    +0.009 C 
ATOM     13  C20 T13     1     144.807  97.826 129.656  0.00  0.00    +0.023 C 
ATOM     14  C21 T13     1     144.773  99.245 129.018  0.00  0.00    +0.009 C 
ATOM     15  C22 T13     1     143.318  99.615 128.582  0.00  0.00    +0.009 C 
ENDROOT
BRANCH   1  19
ATOM     16  C3  T13     1     142.601  96.868 137.425  0.00  0.00    +0.172 A 
ATOM     17  N1  T13     1     141.399  97.315 136.922  0.00  0.00    -0.061 NA
ATOM     18  O1  T13     1     141.740  97.504 135.584  0.00  0.00    -0.329 OA
ATOM     19  C4  T13     1     143.038  97.171 135.424  0.00  0.00    +0.298 A 
ATOM     20  N7  T13     1     143.593  96.774 136.549  0.00  0.00    -0.189 NA
BRANCH  16  22
ATOM     21  C1  T13     1     142.692  97.749 139.792  0.00  0.00    +0.012 C 
ATOM     22  C2  T13     1     142.759  96.508 138.878  0.00  0.00    +0.076 C 
ENDBRANCH  16  22
ENDBRANCH   1  19
BRANCH   7  23
ATOM     23  O2  T13     1     140.172  98.529 130.963  0.00  0.00    -0.469 OA
BRANCH  23  24
ATOM     24  C10 T13     1     139.273  97.545 130.412  0.00  0.00    +0.286 C 
BRANCH  24  25
ATOM     25  C11 T13     1     138.950  97.836 128.950  0.00  0.00    +0.079 A 
ATOM     26  C12 T13     1     138.973  99.138 128.406  0.00  0.00    +0.027 A 
ATOM     27  C13 T13     1     138.662  99.313 127.048  0.00  0.00    +0.004 A 
ATOM     28  C14 T13     1     138.336  98.183 126.281  0.00  0.00    +0.023 A 
ATOM     29  C15 T13     1     138.332  96.921 126.902  0.00  0.00    +0.039 A 
ATOM     30  C16 T13     1     137.994  95.663 126.120  0.00  0.00    +0.065 C 
ATOM     31  N4  T13     1     138.634  96.754 128.206  0.00  0.00    -0.253 NA
ENDBRANCH  24  25
ENDBRANCH  23  24
ENDBRANCH   7  23
TORSDOF 5
ENDMDL
MODEL 4
REMARK VINA RESULT:    -8.248      1.442      2.082
REMARK INTER + INTRA:         -11.963
REMARK INTER:                 -11.702
REMARK INTRA:                  -0.261
REMARK UNBOUND:                -1.304
REMARK  Name = ligands_pdb/TRN_CHEMBL332893.pdb
REMARK  7 active torsions:
REMARK  status: ('A' for Active; 'I' for Inactive)
REMARK    1  A    between atoms: C1_1  and  C2_2
REMARK    2  A    between atoms: C2_2  and  C3_3
REMARK    3  A    between atoms: C4_6  and  C5_7
REMARK    4  A    between atoms: C9_13  and  O2_14
REMARK    5  A    between atoms: O2_14  and  C10_15
REMARK    6  A    between atoms: C10_15  and  C11_16
REMARK    7  A    between atoms: C15_20  and  C16_21
REMARK                            x       y       z     vdW  Elec       q    Type
REMARK                         _______ _______ _______ _____ _____    ______ ____
ROOT
ATOM      1  C5  T13     1     144.450  96.767 135.554  0.00  0.00    +0.243 A 
ATOM      2  N2  T13     1     145.804  96.992 135.345  0.00  0.00    -0.122 NA
ATOM      3  N3  T13     1     146.075  96.799 134.073  0.00  0.00    -0.127 NA
ATOM      4  C6  T13     1     144.888  96.460 133.526  0.00  0.00    +0.182 A 
ATOM      5  C7  T13     1     144.644  96.152 132.178  0.00  0.00    +0.010 A 
ATOM      6  C8  T13     1     143.333  95.820 131.788  0.00  0.00    +0.026 A 
ATOM      7  C9  T13     1     142.297  95.802 132.748  0.00  0.00    +0.237 A 
ATOM      8  N5  T13     1     142.551  96.103 134.045  0.00  0.00    -0.125 NA
ATOM      9  N6  T13     1     143.827  96.418 134.380  0.00  0.00    -0.185 N 
ATOM     10  C17 T13     1     143.196  95.505 130.299  0.00  0.00    +0.025 C 
ATOM     11  C18 T13     1     144.173  94.333 129.992  0.00  0.00    +0.009 C 
ATOM     12  C19 T13     1     145.628  94.703 130.429  0.00  0.00    +0.009 C 
ATOM     13  C20 T13     1     145.666  96.133 131.043  0.00  0.00    +0.023 C 
ATOM     14  C21 T13     1     145.153  97.126 129.960  0.00  0.00    +0.009 C 
ATOM     15  C22 T13     1     143.698  96.756 129.522  0.00  0.00    +0.009 C 
ENDROOT
BRANCH   1  19
ATOM     16  C3  T13     1     143.254  97.481 138.677  0.00  0.00    +0.172 A 
ATOM     17  N1  T13     1     142.568  96.300 138.492  0.00  0.00    -0.061 NA
ATOM     18  O1  T13     1     143.013  95.946 137.220  0.00  0.00    -0.329 OA
ATOM     19  C4  T13     1     143.872  96.895 136.790  0.00  0.00    +0.298 A 
ATOM     20  N7  T13     1     144.038  97.855 137.674  0.00  0.00    -0.189 NA
BRANCH  16  22
ATOM     21  C1  T13     1     144.277  99.274 140.135  0.00  0.00    +0.012 C 
ATOM     22  C2  T13     1     143.113  98.280 139.945  0.00  0.00    +0.076 C 
ENDBRANCH  16  22
ENDBRANCH   1  19
BRANCH   7  23
ATOM     23  O2  T13     1     141.022  95.472 132.340  0.00  0.00    -0.469 OA
BRANCH  23  24
ATOM     24  C10 T13     1     140.288  96.285 131.401  0.00  0.00    +0.286 C 
BRANCH  24  25
ATOM     25  C11 T13     1     140.493  97.773 131.668  0.00  0.00    +0.079 A 
ATOM     26  C12 T13     1     140.513  98.322 132.968  0.00  0.00    +0.027 A 
ATOM     27  C13 T13     1     140.709  99.704 133.120  0.00  0.00    +0.004 A 
ATOM     28  C14 T13     1     140.875 100.491 131.970  0.00  0.00    +0.023 A 
ATOM     29  C15 T13     1     140.838  99.866 130.710  0.00  0.00    +0.039 A 
ATOM     30  C16 T13     1     141.018 100.665 129.431  0.00  0.00    +0.065 C 
ATOM     31  N4  T13     1     140.653  98.537 130.566  0.00  0.00    -0.253 NA
ENDBRANCH  24  25
ENDBRANCH  23  24
ENDBRANCH   7  23
TORSDOF 5
ENDMDL
MODEL 5
REMARK VINA RESULT:    -8.231      3.187      8.531
REMARK INTER + INTRA:         -11.940
REMARK INTER:                 -10.495
REMARK INTRA:                  -1.445
REMARK UNBOUND:                -1.304
REMARK  Name = ligands_pdb/TRN_CHEMBL332893.pdb
REMARK  7 active torsions:
REMARK  status: ('A' for Active; 'I' for Inactive)
REMARK    1  A    between atoms: C1_1  and  C2_2
REMARK    2  A    between atoms: C2_2  and  C3_3
REMARK    3  A    between atoms: C4_6  and  C5_7
REMARK    4  A    between atoms: C9_13  and  O2_14
REMARK    5  A    between atoms: O2_14  and  C10_15
REMARK    6  A    between atoms: C10_15  and  C11_16
REMARK    7  A    between atoms: C15_20  and  C16_21
REMARK                            x       y       z     vdW  Elec       q    Type
REMARK                         _______ _______ _______ _____ _____    ______ ____
ROOT
ATOM      1  C5  T13     1     140.197  97.036 126.940  0.00  0.00    +0.243 A 
ATOM      2  N2  T13     1     140.493  98.251 126.336  0.00  0.00    -0.122 NA
ATOM      3  N3  T13     1     140.836  99.115 127.267  0.00  0.00    -0.127 NA
ATOM      4  C6  T13     1     140.745  98.418 128.420  0.00  0.00    +0.182 A 
ATOM      5  C7  T13     1     141.012  98.897 129.713  0.00  0.00    +0.010 A 
ATOM      6  C8  T13     1     140.862  98.020 130.802  0.00  0.00    +0.026 A 
ATOM      7  C9  T13     1     140.451  96.686 130.581  0.00  0.00    +0.237 A 
ATOM      8  N5  T13     1     140.198  96.241 129.325  0.00  0.00    -0.125 NA
ATOM      9  N6  T13     1     140.355  97.118 128.303  0.00  0.00    -0.185 N 
ATOM     10  C17 T13     1     141.181  98.657 132.153  0.00  0.00    +0.025 C 
ATOM     11  C18 T13     1     140.240  99.887 132.307  0.00  0.00    +0.009 C 
ATOM     12  C19 T13     1     140.405 100.859 131.093  0.00  0.00    +0.009 C 
ATOM     13  C20 T13     1     141.460 100.307 130.092  0.00  0.00    +0.023 C 
ATOM     14  C21 T13     1     142.807 100.158 130.859  0.00  0.00    +0.009 C 
ATOM     15  C22 T13     1     142.642  99.186 132.073  0.00  0.00    +0.009 C 
ENDROOT
BRANCH   1  19
ATOM     16  C3  T13     1     138.828  94.532 125.055  0.00  0.00    +0.172 A 
ATOM     17  N1  T13     1     140.022  93.905 125.340  0.00  0.00    -0.061 NA
ATOM     18  O1  T13     1     140.642  94.882 126.116  0.00  0.00    -0.329 OA
ATOM     19  C4  T13     1     139.808  95.939 126.217  0.00  0.00    +0.298 A 
ATOM     20  N7  T13     1     138.679  95.747 125.568  0.00  0.00    -0.189 NA
BRANCH  16  22
ATOM     21  C1  T13     1     137.686  92.349 124.494  0.00  0.00    +0.012 C 
ATOM     22  C2  T13     1     137.770  93.864 124.218  0.00  0.00    +0.076 C 
ENDBRANCH  16  22
ENDBRANCH   1  19
BRANCH   7  23
ATOM     23  O2  T13     1     140.311  95.848 131.666  0.00  0.00    -0.469 OA
BRANCH  23  24
ATOM     24  C10 T13     1     141.306  94.858 131.997  0.00  0.00    +0.286 C 
BRANCH  24  25
ATOM     25  C11 T13     1     142.493  95.478 132.726  0.00  0.00    +0.079 A 
ATOM     26  C12 T13     1     143.752  95.668 132.117  0.00  0.00    +0.027 A 
ATOM     27  C13 T13     1     144.789  96.248 132.866  0.00  0.00    +0.004 A 
ATOM     28  C14 T13     1     144.535  96.615 134.196  0.00  0.00    +0.023 A 
ATOM     29  C15 T13     1     143.253  96.388 134.729  0.00  0.00    +0.039 A 
ATOM     30  C16 T13     1     142.918  96.771 136.161  0.00  0.00    +0.065 C 
ATOM     31  N4  T13     1     142.257  95.833 134.008  0.00  0.00    -0.253 NA
ENDBRANCH  24  25
ENDBRANCH  23  24
ENDBRANCH   7  23
TORSDOF 5
ENDMDL
MODEL 6
REMARK VINA RESULT:    -8.140      2.129      4.901
REMARK INTER + INTRA:         -11.823
REMARK INTER:                 -10.648
REMARK INTRA:                  -1.175
REMARK UNBOUND:                -1.304
REMARK  Name = ligands_pdb/TRN_CHEMBL332893.pdb
REMARK  7 active torsions:
REMARK  status: ('A' for Active; 'I' for Inactive)
REMARK    1  A    between atoms: C1_1  and  C2_2
REMARK    2  A    between atoms: C2_2  and  C3_3
REMARK    3  A    between atoms: C4_6  and  C5_7
REMARK    4  A    between atoms: C9_13  and  O2_14
REMARK    5  A    between atoms: O2_14  and  C10_15
REMARK    6  A    between atoms: C10_15  and  C11_16
REMARK    7  A    between atoms: C15_20  and  C16_21
REMARK                            x       y       z     vdW  Elec       q    Type
REMARK                         _______ _______ _______ _____ _____    ______ ____
ROOT
ATOM      1  C5  T13     1     141.956  97.560 135.413  0.00  0.00    +0.243 A 
ATOM      2  N2  T13     1     140.713  98.114 135.135  0.00  0.00    -0.122 NA
ATOM      3  N3  T13     1     140.675  98.452 133.864  0.00  0.00    -0.127 NA
ATOM      4  C6  T13     1     141.889  98.101 133.388  0.00  0.00    +0.182 A 
ATOM      5  C7  T13     1     142.350  98.256 132.070  0.00  0.00    +0.010 A 
ATOM      6  C8  T13     1     143.654  97.830 131.757  0.00  0.00    +0.026 A 
ATOM      7  C9  T13     1     144.468  97.260 132.760  0.00  0.00    +0.237 A 
ATOM      8  N5  T13     1     144.006  97.117 134.027  0.00  0.00    -0.125 NA
ATOM      9  N6  T13     1     142.744  97.540 134.288  0.00  0.00    -0.185 N 
ATOM     10  C17 T13     1     144.038  98.053 130.295  0.00  0.00    +0.025 C 
ATOM     11  C18 T13     1     143.874  99.573 130.009  0.00  0.00    +0.009 C 
ATOM     12  C19 T13     1     142.426 100.046 130.362  0.00  0.00    +0.009 C 
ATOM     13  C20 T13     1     141.579  98.854 130.896  0.00  0.00    +0.023 C 
ATOM     14  C21 T13     1     141.542  97.766 129.783  0.00  0.00    +0.009 C 
ATOM     15  C22 T13     1     142.990  97.294 129.430  0.00  0.00    +0.009 C 
ENDROOT
BRANCH   1  19
ATOM     16  C3  T13     1     142.493  96.767 138.696  0.00  0.00    +0.172 A 
ATOM     17  N1  T13     1     143.349  95.836 138.148  0.00  0.00    -0.061 NA
ATOM     18  O1  T13     1     143.179  96.104 136.792  0.00  0.00    -0.329 OA
ATOM     19  C4  T13     1     142.289  97.112 136.665  0.00  0.00    +0.298 A 
ATOM     20  N7  T13     1     141.851  97.539 137.829  0.00  0.00    -0.189 NA
BRANCH  16  22
ATOM     21  C1  T13     1     142.613  98.316 140.689  0.00  0.00    +0.012 C 
ATOM     22  C2  T13     1     142.316  96.889 140.186  0.00  0.00    +0.076 C 
ENDBRANCH  16  22
ENDBRANCH   1  19
BRANCH   7  23
ATOM     23  O2  T13     1     145.742  96.852 132.426  0.00  0.00    -0.469 OA
BRANCH  23  24
ATOM     24  C10 T13     1     146.059  95.466 132.184  0.00  0.00    +0.286 C 
BRANCH  24  25
ATOM     25  C11 T13     1     145.949  95.115 130.704  0.00  0.00    +0.079 A 
ATOM     26  C12 T13     1     144.961  94.245 130.195  0.00  0.00    +0.027 A 
ATOM     27  C13 T13     1     144.934  93.979 128.816  0.00  0.00    +0.004 A 
ATOM     28  C14 T13     1     145.895  94.588 127.994  0.00  0.00    +0.023 A 
ATOM     29  C15 T13     1     146.848  95.440 128.582  0.00  0.00    +0.039 A 
ATOM     30  C16 T13     1     147.907  96.131 127.742  0.00  0.00    +0.065 C 
ATOM     31  N4  T13     1     146.870  95.697 129.906  0.00  0.00    -0.253 NA
ENDBRANCH  24  25
ENDBRANCH  23  24
ENDBRANCH   7  23
TORSDOF 5
ENDMDL
MODEL 7
REMARK VINA RESULT:    -7.940      3.805      7.985
REMARK INTER + INTRA:         -11.565
REMARK INTER:                 -10.379
REMARK INTRA:                  -1.185
REMARK UNBOUND:                -1.304
REMARK  Name = ligands_pdb/TRN_CHEMBL332893.pdb
REMARK  7 active torsions:
REMARK  status: ('A' for Active; 'I' for Inactive)
REMARK    1  A    between atoms: C1_1  and  C2_2
REMARK    2  A    between atoms: C2_2  and  C3_3
REMARK    3  A    between atoms: C4_6  and  C5_7
REMARK    4  A    between atoms: C9_13  and  O2_14
REMARK    5  A    between atoms: O2_14  and  C10_15
REMARK    6  A    between atoms: C10_15  and  C11_16
REMARK    7  A    between atoms: C15_20  and  C16_21
REMARK                            x       y       z     vdW  Elec       q    Type
REMARK                         _______ _______ _______ _____ _____    ______ ____
ROOT
ATOM      1  C5  T13     1     139.272  98.129 128.638  0.00  0.00    +0.243 A 
ATOM      2  N2  T13     1     139.384  99.509 128.520  0.00  0.00    -0.122 NA
ATOM      3  N3  T13     1     139.935  99.985 129.616  0.00  0.00    -0.127 NA
ATOM      4  C6  T13     1     140.151  98.895 130.383  0.00  0.00    +0.182 A 
ATOM      5  C7  T13     1     140.726  98.871 131.663  0.00  0.00    +0.010 A 
ATOM      6  C8  T13     1     140.872  97.633 132.315  0.00  0.00    +0.026 A 
ATOM      7  C9  T13     1     140.442  96.447 131.679  0.00  0.00    +0.237 A 
ATOM      8  N5  T13     1     139.890  96.489 130.441  0.00  0.00    -0.125 NA
ATOM      9  N6  T13     1     139.767  97.702 129.847  0.00  0.00    -0.185 N 
ATOM     10  C17 T13     1     141.510  97.739 133.700  0.00  0.00    +0.025 C 
ATOM     11  C18 T13     1     140.616  98.698 134.538  0.00  0.00    +0.009 C 
ATOM     12  C19 T13     1     140.452 100.072 133.810  0.00  0.00    +0.009 C 
ATOM     13  C20 T13     1     141.230 100.071 132.462  0.00  0.00    +0.023 C 
ATOM     14  C21 T13     1     142.729  99.799 132.783  0.00  0.00    +0.009 C 
ATOM     15  C22 T13     1     142.893  98.425 133.511  0.00  0.00    +0.009 C 
ENDROOT
BRANCH   1  19
ATOM     16  C3  T13     1     138.289  95.910 126.229  0.00  0.00    +0.172 A 
ATOM     17  N1  T13     1     137.251  96.804 126.079  0.00  0.00    -0.061 NA
ATOM     18  O1  T13     1     137.590  97.750 127.044  0.00  0.00    -0.329 OA
ATOM     19  C4  T13     1     138.733  97.354 127.645  0.00  0.00    +0.298 A 
ATOM     20  N7  T13     1     139.185  96.219 127.159  0.00  0.00    -0.189 NA
BRANCH  16  22
ATOM     21  C1  T13     1     139.827  94.415 124.893  0.00  0.00    +0.012 C 
ATOM     22  C2  T13     1     138.386  94.670 125.381  0.00  0.00    +0.076 C 
ENDBRANCH  16  22
ENDBRANCH   1  19
BRANCH   7  23
ATOM     23  O2  T13     1     140.596  95.248 132.340  0.00  0.00    -0.469 OA
BRANCH  23  24
ATOM     24  C10 T13     1     141.376  94.168 131.788  0.00  0.00    +0.286 C 
BRANCH  24  25
ATOM     25  C11 T13     1     142.604  94.685 131.045  0.00  0.00    +0.079 A 
ATOM     26  C12 T13     1     143.643  95.394 131.685  0.00  0.00    +0.027 A 
ATOM     27  C13 T13     1     144.737  95.833 130.921  0.00  0.00    +0.004 A 
ATOM     28  C14 T13     1     144.755  95.552 129.546  0.00  0.00    +0.023 A 
ATOM     29  C15 T13     1     143.677  94.842 128.986  0.00  0.00    +0.039 A 
ATOM     30  C16 T13     1     143.645  94.503 127.505  0.00  0.00    +0.065 C 
ATOM     31  N4  T13     1     142.628  94.419 129.721  0.00  0.00    -0.253 NA
ENDBRANCH  24  25
ENDBRANCH  23  24
ENDBRANCH   7  23
TORSDOF 5
ENDMDL
MODEL 8
REMARK VINA RESULT:    -7.925      1.918      5.517
REMARK INTER + INTRA:         -11.545
REMARK INTER:                 -10.646
REMARK INTRA:                  -0.899
REMARK UNBOUND:                -1.304
REMARK  Name = ligands_pdb/TRN_CHEMBL332893.pdb
REMARK  7 active torsions:
REMARK  status: ('A' for Active; 'I' for Inactive)
REMARK    1  A    between atoms: C1_1  and  C2_2
REMARK    2  A    between atoms: C2_2  and  C3_3
REMARK    3  A    between atoms: C4_6  and  C5_7
REMARK    4  A    between atoms: C9_13  and  O2_14
REMARK    5  A    between atoms: O2_14  and  C10_15
REMARK    6  A    between atoms: C10_15  and  C11_16
REMARK    7  A    between atoms: C15_20  and  C16_21
REMARK                            x       y       z     vdW  Elec       q    Type
REMARK                         _______ _______ _______ _____ _____    ______ ____
ROOT
ATOM      1  C5  T13     1     141.821  98.408 134.086  0.00  0.00    +0.243 A 
ATOM      2  N2  T13     1     140.783  99.303 134.314  0.00  0.00    -0.122 NA
ATOM      3  N3  T13     1     140.312  99.710 133.155  0.00  0.00    -0.127 NA
ATOM      4  C6  T13     1     141.065  99.060 132.242  0.00  0.00    +0.182 A 
ATOM      5  C7  T13     1     140.955  99.155 130.845  0.00  0.00    +0.010 A 
ATOM      6  C8  T13     1     141.832  98.399 130.046  0.00  0.00    +0.026 A 
ATOM      7  C9  T13     1     142.798  97.566 130.655  0.00  0.00    +0.237 A 
ATOM      8  N5  T13     1     142.889  97.487 132.005  0.00  0.00    -0.125 NA
ATOM      9  N6  T13     1     142.025  98.232 132.739  0.00  0.00    -0.185 N 
ATOM     10  C17 T13     1     141.614  98.587 128.546  0.00  0.00    +0.025 C 
ATOM     11  C18 T13     1     141.776 100.106 128.251  0.00  0.00    +0.009 C 
ATOM     12  C19 T13     1     140.803 100.945 129.143  0.00  0.00    +0.009 C 
ATOM     13  C20 T13     1     139.963 100.011 130.061  0.00  0.00    +0.023 C 
ATOM     14  C21 T13     1     139.162  99.042 129.142  0.00  0.00    +0.009 C 
ATOM     15  C22 T13     1     140.135  98.204 128.251  0.00  0.00    +0.009 C 
ENDROOT
BRANCH   1  19
ATOM     16  C3  T13     1     143.117  96.805 136.815  0.00  0.00    +0.172 A 
ATOM     17  N1  T13     1     144.314  97.199 136.258  0.00  0.00    -0.061 NA
ATOM     18  O1  T13     1     143.857  97.868 135.125  0.00  0.00    -0.329 OA
ATOM     19  C4  T13     1     142.508  97.813 135.112  0.00  0.00    +0.298 A 
ATOM     20  N7  T13     1     142.026  97.161 136.148  0.00  0.00    -0.189 NA
BRANCH  16  22
ATOM     21  C1  T13     1     141.818  96.363 138.937  0.00  0.00    +0.012 C 
ATOM     22  C2  T13     1     143.069  96.025 138.102  0.00  0.00    +0.076 C 
ENDBRANCH  16  22
ENDBRANCH   1  19
BRANCH   7  23
ATOM     23  O2  T13     1     143.646  96.837 129.849  0.00  0.00    -0.469 OA
BRANCH  23  24
ATOM     24  C10 T13     1     145.070  97.066 129.837  0.00  0.00    +0.286 C 
BRANCH  24  25
ATOM     25  C11 T13     1     145.810  96.036 130.685  0.00  0.00    +0.079 A 
ATOM     26  C12 T13     1     146.232  94.789 130.178  0.00  0.00    +0.027 A 
ATOM     27  C13 T13     1     146.909  93.902 131.032  0.00  0.00    +0.004 A 
ATOM     28  C14 T13     1     147.139  94.290 132.361  0.00  0.00    +0.023 A 
ATOM     29  C15 T13     1     146.682  95.551 132.787  0.00  0.00    +0.039 A 
ATOM     30  C16 T13     1     146.908  96.027 134.212  0.00  0.00    +0.065 C 
ATOM     31  N4  T13     1     146.035  96.403 131.965  0.00  0.00    -0.253 NA
ENDBRANCH  24  25
ENDBRANCH  23  24
ENDBRANCH   7  23
TORSDOF 5
ENDMDL
MODEL 9
REMARK VINA RESULT:    -7.904      2.095      4.529
REMARK INTER + INTRA:         -11.518
REMARK INTER:                 -10.093
REMARK INTRA:                  -1.425
REMARK UNBOUND:                -1.304
REMARK  Name = ligands_pdb/TRN_CHEMBL332893.pdb
REMARK  7 active torsions:
REMARK  status: ('A' for Active; 'I' for Inactive)
REMARK    1  A    between atoms: C1_1  and  C2_2
REMARK    2  A    between atoms: C2_2  and  C3_3
REMARK    3  A    between atoms: C4_6  and  C5_7
REMARK    4  A    between atoms: C9_13  and  O2_14
REMARK    5  A    between atoms: O2_14  and  C10_15
REMARK    6  A    between atoms: C10_15  and  C11_16
REMARK    7  A    between atoms: C15_20  and  C16_21
REMARK                            x       y       z     vdW  Elec       q    Type
REMARK                         _______ _______ _______ _____ _____    ______ ____
ROOT
ATOM      1  C5  T13     1     141.757  98.169 134.096  0.00  0.00    +0.243 A 
ATOM      2  N2  T13     1     141.477  99.526 134.000  0.00  0.00    -0.122 NA
ATOM      3  N3  T13     1     141.101  99.795 132.769  0.00  0.00    -0.127 NA
ATOM      4  C6  T13     1     141.156  98.605 132.134  0.00  0.00    +0.182 A 
ATOM      5  C7  T13     1     140.845  98.358 130.787  0.00  0.00    +0.010 A 
ATOM      6  C8  T13     1     140.962  97.044 130.297  0.00  0.00    +0.026 A 
ATOM      7  C9  T13     1     141.385  96.007 131.158  0.00  0.00    +0.237 A 
ATOM      8  N5  T13     1     141.681  96.264 132.456  0.00  0.00    -0.125 NA
ATOM      9  N6  T13     1     141.555  97.543 132.889  0.00  0.00    -0.185 N 
ATOM     10  C17 T13     1     140.597  96.904 128.820  0.00  0.00    +0.025 C 
ATOM     11  C18 T13     1     141.527  97.869 128.030  0.00  0.00    +0.009 C 
ATOM     12  C19 T13     1     141.399  99.328 128.579  0.00  0.00    +0.009 C 
ATOM     13  C20 T13     1     140.379  99.380 129.753  0.00  0.00    +0.023 C 
ATOM     14  C21 T13     1     139.009  98.878 129.211  0.00  0.00    +0.009 C 
ATOM     15  C22 T13     1     139.137  97.420 128.663  0.00  0.00    +0.009 C 
ENDROOT
BRANCH   1  19
ATOM     16  C3  T13     1     142.401  96.891 137.202  0.00  0.00    +0.172 A 
ATOM     17  N1  T13     1     143.554  96.452 136.589  0.00  0.00    -0.061 NA
ATOM     18  O1  T13     1     143.358  96.943 135.300  0.00  0.00    -0.329 OA
ATOM     19  C4  T13     1     142.174  97.592 135.267  0.00  0.00    +0.298 A 
ATOM     20  N7  T13     1     141.563  97.574 136.432  0.00  0.00    -0.189 NA
BRANCH  16  22
ATOM     21  C1  T13     1     142.269  97.875 139.526  0.00  0.00    +0.012 C 
ATOM     22  C2  T13     1     142.128  96.610 138.656  0.00  0.00    +0.076 C 
ENDBRANCH  16  22
ENDBRANCH   1  19
BRANCH   7  23
ATOM     23  O2  T13     1     141.493  94.729 130.652  0.00  0.00    -0.469 OA
BRANCH  23  24
ATOM     24  C10 T13     1     142.773  94.113 130.406  0.00  0.00    +0.286 C 
BRANCH  24  25
ATOM     25  C11 T13     1     143.496  94.768 129.234  0.00  0.00    +0.079 A 
ATOM     26  C12 T13     1     143.332  94.342 127.899  0.00  0.00    +0.027 A 
ATOM     27  C13 T13     1     144.037  95.005 126.882  0.00  0.00    +0.004 A 
ATOM     28  C14 T13     1     144.884  96.068 127.232  0.00  0.00    +0.023 A 
ATOM     29  C15 T13     1     144.994  96.428 128.588  0.00  0.00    +0.039 A 
ATOM     30  C16 T13     1     145.889  97.575 129.025  0.00  0.00    +0.065 C 
ATOM     31  N4  T13     1     144.313  95.792 129.563  0.00  0.00    -0.253 NA
ENDBRANCH  24  25
ENDBRANCH  23  24
ENDBRANCH   7  23
TORSDOF 5
ENDMDL
