MODEL 1
REMARK VINA RESULT:    -8.336      0.000      0.000
REMARK INTER + INTRA:         -18.972
REMARK INTER:                 -14.183
REMARK INTRA:                  -4.789
REMARK UNBOUND:                -4.789
REMARK  Name = ligands_pdb/TRN_CHEMBL505768.pdb
REMARK  12 active torsions:
REMARK  status: ('A' for Active; 'I' for Inactive)
REMARK    1  A    between atoms: C2_2  and  C3_3
REMARK    2  A    between atoms: C9_9  and  C10_10
REMARK    3  A    between atoms: C18_19  and  C19_20
REMARK    4  A    between atoms: C19_20  and  O2_22
REMARK    5  A    between atoms: O2_22  and  C20_23
REMARK    6  A    between atoms: C20_23  and  C21_24
REMARK    7  A    between atoms: C21_24  and  C22_25
REMARK    8  A    between atoms: C22_25  and  O3_26
REMARK    9  A    between atoms: O3_26  and  C23_27
REMARK   10  A    between atoms: C23_27  and  C24_29
REMARK   11  A    between atoms: C28_36  and  C29_37
REMARK   12  A    between atoms: C37_45  and  C38_46
REMARK                            x       y       z     vdW  Elec       q    Type
REMARK                         _______ _______ _______ _____ _____    ______ ____
ROOT
ATOM      1  C21 T19     1     139.112  96.455 126.769  0.00  0.00    +0.082 C 
ENDROOT
BRANCH   1   2
ATOM      2  C20 T19     1     138.111  95.632 125.935  0.00  0.00    +0.236 C 
BRANCH   2   3
ATOM      3  O2  T19     1     138.646  94.311 125.726  0.00  0.00    -0.460 OA
BRANCH   3   4
ATOM      4  C19 T19     1     138.991  93.926 124.458  0.00  0.00    +0.360 C 
ATOM      5  O1  T19     1     138.370  93.067 123.852  0.00  0.00    -0.243 OA
BRANCH   4  16
ATOM      6  C3  T19     1     146.419  95.438 123.422  0.00  0.00    +0.025 A 
ATOM      7  C4  T19     1     145.681  95.455 122.229  0.00  0.00    +0.019 A 
ATOM      8  C5  T19     1     144.279  95.446 122.272  0.00  0.00    +0.028 A 
ATOM      9  C6  T19     1     143.608  95.421 123.508  0.00  0.00    +0.053 A 
ATOM     10  C7  T19     1     144.343  95.408 124.719  0.00  0.00    +0.006 A 
ATOM     11  C8  T19     1     145.751  95.414 124.657  0.00  0.00    +0.024 A 
ATOM     12  C9  T19     1     143.683  95.389 126.061  0.00  0.00    +0.116 C 
ATOM     13  N1  T19     1     142.804  94.492 126.383  0.00  0.00    -0.216 NA
ATOM     14  C16 T19     1     142.110  93.660 125.385  0.00  0.00    +0.160 C 
ATOM     15  C17 T19     1     141.539  94.537 124.296  0.00  0.00    +0.073 A 
ATOM     16  C18 T19     1     140.158  94.652 123.897  0.00  0.00    +0.170 A 
ATOM     17  N5  T19     1     140.055  95.543 122.892  0.00  0.00    -0.228 NA
ATOM     18  C43 T19     1     141.283  95.982 122.661  0.00  0.00    +0.205 A 
ATOM     19  N6  T19     1     142.213  95.409 123.506  0.00  0.00    -0.300 N 
BRANCH  12  20
ATOM     20  C10 T19     1     144.158  96.358 127.090  0.00  0.00    -0.019 A 
ATOM     21  C11 T19     1     145.489  96.323 127.556  0.00  0.00    +0.006 A 
ATOM     22  C12 T19     1     145.932  97.235 128.528  0.00  0.00    +0.000 A 
ATOM     23  C13 T19     1     145.048  98.191 129.050  0.00  0.00    +0.000 A 
ATOM     24  C14 T19     1     143.719  98.230 128.601  0.00  0.00    +0.000 A 
ATOM     25  C15 T19     1     143.277  97.319 127.629  0.00  0.00    +0.006 A 
ENDBRANCH  12  20
BRANCH   6  27
ATOM     26  C1  T19     1     149.068  95.435 123.341  0.00  0.00    +0.009 C 
ATOM     27  C2  T19     1     147.853  95.442 123.382  0.00  0.00    -0.070 C 
ENDBRANCH   6  27
ENDBRANCH   4  16
ENDBRANCH   3   4
ENDBRANCH   2   3
ENDBRANCH   1   2
BRANCH   1  28
ATOM     28  C22 T19     1     139.626  97.666 125.966  0.00  0.00    +0.236 C 
BRANCH  28  29
ATOM     29  O3  T19     1     140.238  98.604 126.872  0.00  0.00    -0.460 OA
BRANCH  29  30
ATOM     30  C23 T19     1     139.492  99.115 127.904  0.00  0.00    +0.360 C 
ATOM     31  O4  T19     1     138.323  99.440 127.760  0.00  0.00    -0.243 OA
BRANCH  30  32
ATOM     32  C24 T19     1     140.238  99.270 129.177  0.00  0.00    +0.170 A 
ATOM     33  N2  T19     1     140.871 100.403 129.524  0.00  0.00    -0.228 NA
ATOM     34  C25 T19     1     141.434 100.110 130.757  0.00  0.00    +0.205 A 
ATOM     35  N3  T19     1     141.112  98.835 131.139  0.00  0.00    -0.300 N 
ATOM     36  C26 T19     1     140.368  98.296 130.124  0.00  0.00    +0.073 A 
ATOM     37  C27 T19     1     139.898  96.858 130.235  0.00  0.00    +0.160 C 
ATOM     38  N4  T19     1     141.074  95.968 130.214  0.00  0.00    -0.216 NA
ATOM     39  C28 T19     1     142.088  96.084 131.017  0.00  0.00    +0.116 C 
ATOM     40  C35 T19     1     142.056  96.903 132.271  0.00  0.00    +0.006 A 
ATOM     41  C36 T19     1     142.500  96.319 133.475  0.00  0.00    +0.024 A 
ATOM     42  C37 T19     1     142.505  97.049 134.675  0.00  0.00    +0.025 A 
ATOM     43  C40 T19     1     142.058  98.380 134.687  0.00  0.00    +0.019 A 
ATOM     44  C41 T19     1     141.608  98.978 133.500  0.00  0.00    +0.028 A 
ATOM     45  C42 T19     1     141.615  98.249 132.295  0.00  0.00    +0.053 A 
BRANCH  39  46
ATOM     46  C29 T19     1     143.317  95.282 130.747  0.00  0.00    -0.019 A 
ATOM     47  C30 T19     1     144.530  95.593 131.397  0.00  0.00    +0.006 A 
ATOM     48  C31 T19     1     145.689  94.838 131.147  0.00  0.00    +0.000 A 
ATOM     49  C32 T19     1     145.648  93.767 130.243  0.00  0.00    +0.000 A 
ATOM     50  C33 T19     1     144.450  93.453 129.585  0.00  0.00    +0.000 A 
ATOM     51  C34 T19     1     143.292  94.208 129.834  0.00  0.00    +0.006 A 
ENDBRANCH  39  46
BRANCH  42  52
ATOM     52  C38 T19     1     142.956  96.431 135.889  0.00  0.00    -0.070 C 
ATOM     53  C39 T19     1     143.342  95.918 136.920  0.00  0.00    +0.009 C 
ENDBRANCH  42  52
ENDBRANCH  30  32
ENDBRANCH  29  30
ENDBRANCH  28  29
ENDBRANCH   1  28
TORSDOF 12
ENDMDL
MODEL 2
REMARK VINA RESULT:    -7.847      1.552      7.031
REMARK INTER + INTRA:         -18.141
REMARK INTER:                 -12.964
REMARK INTRA:                  -5.177
REMARK UNBOUND:                -4.789
REMARK  Name = ligands_pdb/TRN_CHEMBL505768.pdb
REMARK  12 active torsions:
REMARK  status: ('A' for Active; 'I' for Inactive)
REMARK    1  A    between atoms: C2_2  and  C3_3
REMARK    2  A    between atoms: C9_9  and  C10_10
REMARK    3  A    between atoms: C18_19  and  C19_20
REMARK    4  A    between atoms: C19_20  and  O2_22
REMARK    5  A    between atoms: O2_22  and  C20_23
REMARK    6  A    between atoms: C20_23  and  C21_24
REMARK    7  A    between atoms: C21_24  and  C22_25
REMARK    8  A    between atoms: C22_25  and  O3_26
REMARK    9  A    between atoms: O3_26  and  C23_27
REMARK   10  A    between atoms: C23_27  and  C24_29
REMARK   11  A    between atoms: C28_36  and  C29_37
REMARK   12  A    between atoms: C37_45  and  C38_46
REMARK                            x       y       z     vdW  Elec       q    Type
REMARK                         _______ _______ _______ _____ _____    ______ ____
ROOT
ATOM      1  C21 T19     1     137.703  98.730 126.713  0.00  0.00    +0.082 C 
ENDROOT
BRANCH   1   2
ATOM      2  C20 T19     1     139.210  99.048 126.655  0.00  0.00    +0.236 C 
BRANCH   2   3
ATOM      3  O2  T19     1     139.522 100.036 127.656  0.00  0.00    -0.460 OA
BRANCH   3   4
ATOM      4  C19 T19     1     139.923  99.621 128.898  0.00  0.00    +0.360 C 
ATOM      5  O1  T19     1     139.144  99.540 129.835  0.00  0.00    -0.243 OA
BRANCH   4  16
ATOM      6  C3  T19     1     145.919  95.051 130.202  0.00  0.00    +0.025 A 
ATOM      7  C4  T19     1     146.052  95.815 129.033  0.00  0.00    +0.019 A 
ATOM      8  C5  T19     1     145.167  96.875 128.784  0.00  0.00    +0.028 A 
ATOM      9  C6  T19     1     144.145  97.176 129.703  0.00  0.00    +0.053 A 
ATOM     10  C7  T19     1     144.005  96.413 130.889  0.00  0.00    +0.006 A 
ATOM     11  C8  T19     1     144.900  95.350 131.121  0.00  0.00    +0.024 A 
ATOM     12  C9  T19     1     142.942  96.692 131.903  0.00  0.00    +0.116 C 
ATOM     13  N1  T19     1     141.686  96.752 131.587  0.00  0.00    -0.216 NA
ATOM     14  C16 T19     1     141.220  96.922 130.200  0.00  0.00    +0.160 C 
ATOM     15  C17 T19     1     141.945  98.080 129.555  0.00  0.00    +0.073 A 
ATOM     16  C18 T19     1     141.363  99.271 128.988  0.00  0.00    +0.170 A 
ATOM     17  N5  T19     1     142.342 100.066 128.515  0.00  0.00    -0.228 NA
ATOM     18  C43 T19     1     143.481  99.438 128.767  0.00  0.00    +0.205 A 
ATOM     19  N6  T19     1     143.284  98.235 129.415  0.00  0.00    -0.300 N 
BRANCH  12  20
ATOM     20  C10 T19     1     143.345  96.770 133.337  0.00  0.00    -0.019 A 
ATOM     21  C11 T19     1     144.462  97.537 133.733  0.00  0.00    +0.006 A 
ATOM     22  C12 T19     1     144.841  97.606 135.083  0.00  0.00    +0.000 A 
ATOM     23  C13 T19     1     144.110  96.906 136.056  0.00  0.00    +0.000 A 
ATOM     24  C14 T19     1     143.003  96.133 135.674  0.00  0.00    +0.000 A 
ATOM     25  C15 T19     1     142.624  96.065 134.323  0.00  0.00    +0.006 A 
ENDBRANCH  12  20
BRANCH   6  27
ATOM     26  C1  T19     1     147.575  93.038 130.681  0.00  0.00    +0.009 C 
ATOM     27  C2  T19     1     146.819  93.964 130.457  0.00  0.00    -0.070 C 
ENDBRANCH   6  27
ENDBRANCH   4  16
ENDBRANCH   3   4
ENDBRANCH   2   3
ENDBRANCH   1   2
BRANCH   1  28
ATOM     28  C22 T19     1     137.454  97.225 126.495  0.00  0.00    +0.236 C 
BRANCH  28  29
ATOM     29  O3  T19     1     138.231  96.778 125.368  0.00  0.00    -0.460 OA
BRANCH  29  30
ATOM     30  C23 T19     1     138.623  95.465 125.309  0.00  0.00    +0.360 C 
ATOM     31  O4  T19     1     137.964  94.569 125.815  0.00  0.00    -0.243 OA
BRANCH  30  32
ATOM     32  C24 T19     1     139.919  95.245 124.623  0.00  0.00    +0.170 A 
ATOM     33  N2  T19     1     140.019  94.699 123.399  0.00  0.00    -0.228 NA
ATOM     34  C25 T19     1     141.384  94.670 123.155  0.00  0.00    +0.205 A 
ATOM     35  N3  T19     1     142.071  95.216 124.206  0.00  0.00    -0.300 N 
ATOM     36  C26 T19     1     141.138  95.563 125.147  0.00  0.00    +0.073 A 
ATOM     37  C27 T19     1     141.603  96.157 126.463  0.00  0.00    +0.160 C 
ATOM     38  N4  T19     1     142.371  95.138 127.203  0.00  0.00    -0.216 NA
ATOM     39  C28 T19     1     143.388  94.496 126.713  0.00  0.00    +0.116 C 
ATOM     40  C35 T19     1     144.120  94.932 125.481  0.00  0.00    +0.006 A 
ATOM     41  C36 T19     1     145.527  95.025 125.524  0.00  0.00    +0.024 A 
ATOM     42  C37 T19     1     146.262  95.414 124.392  0.00  0.00    +0.025 A 
ATOM     43  C40 T19     1     145.594  95.720 123.195  0.00  0.00    +0.019 A 
ATOM     44  C41 T19     1     144.195  95.638 123.133  0.00  0.00    +0.028 A 
ATOM     45  C42 T19     1     143.460  95.236 124.265  0.00  0.00    +0.053 A 
BRANCH  39  46
ATOM     46  C29 T19     1     143.933  93.327 127.462  0.00  0.00    -0.019 A 
ATOM     47  C30 T19     1     143.371  92.946 128.699  0.00  0.00    +0.006 A 
ATOM     48  C31 T19     1     143.880  91.844 129.407  0.00  0.00    +0.000 A 
ATOM     49  C32 T19     1     144.959  91.113 128.888  0.00  0.00    +0.000 A 
ATOM     50  C33 T19     1     145.532  91.487 127.663  0.00  0.00    +0.000 A 
ATOM     51  C34 T19     1     145.022  92.589 126.956  0.00  0.00    +0.006 A 
ENDBRANCH  39  46
BRANCH  42  52
ATOM     52  C38 T19     1     147.691  95.507 124.461  0.00  0.00    -0.070 C 
ATOM     53  C39 T19     1     148.902  95.593 124.512  0.00  0.00    +0.009 C 
ENDBRANCH  42  52
ENDBRANCH  30  32
ENDBRANCH  29  30
ENDBRANCH  28  29
ENDBRANCH   1  28
TORSDOF 12
ENDMDL
MODEL 3
REMARK VINA RESULT:    -7.644      3.334      7.505
REMARK INTER + INTRA:         -17.794
REMARK INTER:                 -13.556
REMARK INTRA:                  -4.238
REMARK UNBOUND:                -4.789
REMARK  Name = ligands_pdb/TRN_CHEMBL505768.pdb
REMARK  12 active torsions:
REMARK  status: ('A' for Active; 'I' for Inactive)
REMARK    1  A    between atoms: C2_2  and  C3_3
REMARK    2  A    between atoms: C9_9  and  C10_10
REMARK    3  A    between atoms: C18_19  and  C19_20
REMARK    4  A    between atoms: C19_20  and  O2_22
REMARK    5  A    between atoms: O2_22  and  C20_23
REMARK    6  A    between atoms: C20_23  and  C21_24
REMARK    7  A    between atoms: C21_24  and  C22_25
REMARK    8  A    between atoms: C22_25  and  O3_26
REMARK    9  A    between atoms: O3_26  and  C23_27
REMARK   10  A    between atoms: C23_27  and  C24_29
REMARK   11  A    between atoms: C28_36  and  C29_37
REMARK   12  A    between atoms: C37_45  and  C38_46
REMARK                            x       y       z     vdW  Elec       q    Type
REMARK                         _______ _______ _______ _____ _____    ______ ____
ROOT
ATOM      1  C21 T19     1     143.117  96.922 134.628  0.00  0.00    +0.082 C 
ENDROOT
BRANCH   1   2
ATOM      2  C20 T19     1     144.443  97.593 135.035  0.00  0.00    +0.236 C 
BRANCH   2   3
ATOM      3  O2  T19     1     145.444  97.301 134.041  0.00  0.00    -0.460 OA
BRANCH   3   4
ATOM      4  C19 T19     1     146.108  96.104 134.098  0.00  0.00    +0.360 C 
ATOM      5  O1  T19     1     146.062  95.386 135.084  0.00  0.00    -0.243 OA
BRANCH   4  16
ATOM      6  C3  T19     1     147.038  94.992 126.585  0.00  0.00    +0.025 A 
ATOM      7  C4  T19     1     148.083  95.725 127.168  0.00  0.00    +0.019 A 
ATOM      8  C5  T19     1     148.193  95.800 128.565  0.00  0.00    +0.028 A 
ATOM      9  C6  T19     1     147.257  95.142 129.386  0.00  0.00    +0.053 A 
ATOM     10  C7  T19     1     146.200  94.397 128.807  0.00  0.00    +0.006 A 
ATOM     11  C8  T19     1     146.104  94.335 127.403  0.00  0.00    +0.024 A 
ATOM     12  C9  T19     1     145.183  93.674 129.630  0.00  0.00    +0.116 C 
ATOM     13  N1  T19     1     144.491  94.270 130.550  0.00  0.00    -0.216 NA
ATOM     14  C16 T19     1     144.876  95.571 131.121  0.00  0.00    +0.160 C 
ATOM     15  C17 T19     1     146.326  95.535 131.544  0.00  0.00    +0.073 A 
ATOM     16  C18 T19     1     146.860  95.766 132.864  0.00  0.00    +0.170 A 
ATOM     17  N5  T19     1     148.200  95.640 132.832  0.00  0.00    -0.228 NA
ATOM     18  C43 T19     1     148.513  95.338 131.581  0.00  0.00    +0.205 A 
ATOM     19  N6  T19     1     147.400  95.247 130.769  0.00  0.00    -0.300 N 
BRANCH  12  20
ATOM     20  C10 T19     1     144.876  92.257 129.279  0.00  0.00    -0.019 A 
ATOM     21  C11 T19     1     143.628  91.904 128.723  0.00  0.00    +0.006 A 
ATOM     22  C12 T19     1     143.341  90.568 128.398  0.00  0.00    +0.000 A 
ATOM     23  C13 T19     1     144.297  89.567 128.627  0.00  0.00    +0.000 A 
ATOM     24  C14 T19     1     145.539  89.904 129.187  0.00  0.00    +0.000 A 
ATOM     25  C15 T19     1     145.826  91.240 129.512  0.00  0.00    +0.006 A 
ENDBRANCH  12  20
BRANCH   6  27
ATOM     26  C1  T19     1     146.819  94.866 123.947  0.00  0.00    +0.009 C 
ATOM     27  C2  T19     1     146.920  94.918 125.158  0.00  0.00    -0.070 C 
ENDBRANCH   6  27
ENDBRANCH   4  16
ENDBRANCH   3   4
ENDBRANCH   2   3
ENDBRANCH   1   2
BRANCH   1  28
ATOM     28  C22 T19     1     141.914  97.686 135.216  0.00  0.00    +0.236 C 
BRANCH  28  29
ATOM     29  O3  T19     1     140.965  97.949 134.166  0.00  0.00    -0.460 OA
BRANCH  29  30
ATOM     30  C23 T19     1     141.055  99.126 133.468  0.00  0.00    +0.360 C 
ATOM     31  O4  T19     1     140.572 100.167 133.887  0.00  0.00    -0.243 OA
BRANCH  30  32
ATOM     32  C24 T19     1     141.746  99.009 132.160  0.00  0.00    +0.170 A 
ATOM     33  N2  T19     1     142.617  99.924 131.705  0.00  0.00    -0.228 NA
ATOM     34  C25 T19     1     143.003  99.433 130.466  0.00  0.00    +0.205 A 
ATOM     35  N3  T19     1     142.389  98.237 130.212  0.00  0.00    -0.300 N 
ATOM     36  C26 T19     1     141.574  97.978 131.282  0.00  0.00    +0.073 A 
ATOM     37  C27 T19     1     140.714  96.729 131.271  0.00  0.00    +0.160 C 
ATOM     38  N4  T19     1     139.717  96.845 130.190  0.00  0.00    -0.216 NA
ATOM     39  C28 T19     1     140.014  97.095 128.951  0.00  0.00    +0.116 C 
ATOM     40  C35 T19     1     141.398  96.965 128.394  0.00  0.00    +0.006 A 
ATOM     41  C36 T19     1     141.584  96.235 127.202  0.00  0.00    +0.024 A 
ATOM     42  C37 T19     1     142.860  96.096 126.630  0.00  0.00    +0.025 A 
ATOM     43  C40 T19     1     143.973  96.688 127.249  0.00  0.00    +0.019 A 
ATOM     44  C41 T19     1     143.809  97.415 128.437  0.00  0.00    +0.028 A 
ATOM     45  C42 T19     1     142.528  97.563 129.004  0.00  0.00    +0.053 A 
BRANCH  39  46
ATOM     46  C29 T19     1     138.914  97.424 127.998  0.00  0.00    -0.019 A 
ATOM     47  C30 T19     1     138.788  98.727 127.474  0.00  0.00    +0.006 A 
ATOM     48  C31 T19     1     137.755  99.040 126.574  0.00  0.00    +0.000 A 
ATOM     49  C32 T19     1     136.833  98.054 126.192  0.00  0.00    +0.000 A 
ATOM     50  C33 T19     1     136.943  96.756 126.713  0.00  0.00    +0.000 A 
ATOM     51  C34 T19     1     137.976  96.444 127.612  0.00  0.00    +0.006 A 
ENDBRANCH  39  46
BRANCH  42  52
ATOM     52  C38 T19     1     143.026  95.344 125.420  0.00  0.00    -0.070 C 
ATOM     53  C39 T19     1     143.175  94.701 124.400  0.00  0.00    +0.009 C 
ENDBRANCH  42  52
ENDBRANCH  30  32
ENDBRANCH  29  30
ENDBRANCH  28  29
ENDBRANCH   1  28
TORSDOF 12
ENDMDL
MODEL 4
REMARK VINA RESULT:    -7.460      1.759      3.545
REMARK INTER + INTRA:         -17.482
REMARK INTER:                 -13.306
REMARK INTRA:                  -4.176
REMARK UNBOUND:                -4.789
REMARK  Name = ligands_pdb/TRN_CHEMBL505768.pdb
REMARK  12 active torsions:
REMARK  status: ('A' for Active; 'I' for Inactive)
REMARK    1  A    between atoms: C2_2  and  C3_3
REMARK    2  A    between atoms: C9_9  and  C10_10
REMARK    3  A    between atoms: C18_19  and  C19_20
REMARK    4  A    between atoms: C19_20  and  O2_22
REMARK    5  A    between atoms: O2_22  and  C20_23
REMARK    6  A    between atoms: C20_23  and  C21_24
REMARK    7  A    between atoms: C21_24  and  C22_25
REMARK    8  A    between atoms: C22_25  and  O3_26
REMARK    9  A    between atoms: O3_26  and  C23_27
REMARK   10  A    between atoms: C23_27  and  C24_29
REMARK   11  A    between atoms: C28_36  and  C29_37
REMARK   12  A    between atoms: C37_45  and  C38_46
REMARK                            x       y       z     vdW  Elec       q    Type
REMARK                         _______ _______ _______ _____ _____    ______ ____
ROOT
ATOM      1  C21 T19     1     137.139  96.904 126.532  0.00  0.00    +0.082 C 
ENDROOT
BRANCH   1   2
ATOM      2  C20 T19     1     138.068  95.999 125.699  0.00  0.00    +0.236 C 
BRANCH   2   3
ATOM      3  O2  T19     1     139.423  96.167 126.156  0.00  0.00    -0.460 OA
BRANCH   3   4
ATOM      4  C19 T19     1     140.453  95.932 125.284  0.00  0.00    +0.360 C 
ATOM      5  O1  T19     1     140.656  96.648 124.316  0.00  0.00    -0.243 OA
BRANCH   4  16
ATOM      6  C3  T19     1     145.688  92.042 129.284  0.00  0.00    +0.025 A 
ATOM      7  C4  T19     1     144.534  91.292 129.011  0.00  0.00    +0.019 A 
ATOM      8  C5  T19     1     143.594  91.766 128.083  0.00  0.00    +0.028 A 
ATOM      9  C6  T19     1     143.803  92.992 127.424  0.00  0.00    +0.053 A 
ATOM     10  C7  T19     1     144.968  93.754 127.691  0.00  0.00    +0.006 A 
ATOM     11  C8  T19     1     145.899  93.265 128.627  0.00  0.00    +0.024 A 
ATOM     12  C9  T19     1     145.246  95.059 127.015  0.00  0.00    +0.116 C 
ATOM     13  N1  T19     1     144.393  96.036 127.026  0.00  0.00    -0.216 NA
ATOM     14  C16 T19     1     142.971  95.850 127.362  0.00  0.00    +0.160 C 
ATOM     15  C17 T19     1     142.400  94.709 126.553  0.00  0.00    +0.073 A 
ATOM     16  C18 T19     1     141.290  94.757 125.633  0.00  0.00    +0.170 A 
ATOM     17  N5  T19     1     141.091  93.533 125.108  0.00  0.00    -0.228 NA
ATOM     18  C43 T19     1     142.014  92.747 125.643  0.00  0.00    +0.205 A 
ATOM     19  N6  T19     1     142.842  93.428 126.513  0.00  0.00    -0.300 N 
BRANCH  12  20
ATOM     20  C10 T19     1     146.601  95.271 126.429  0.00  0.00    -0.019 A 
ATOM     21  C11 T19     1     147.648  95.809 127.207  0.00  0.00    +0.006 A 
ATOM     22  C12 T19     1     148.922  96.010 126.651  0.00  0.00    +0.000 A 
ATOM     23  C13 T19     1     149.164  95.680 125.308  0.00  0.00    +0.000 A 
ATOM     24  C14 T19     1     148.128  95.152 124.522  0.00  0.00    +0.000 A 
ATOM     25  C15 T19     1     146.855  94.951 125.079  0.00  0.00    +0.006 A 
ENDBRANCH  12  20
BRANCH   6  27
ATOM     26  C1  T19     1     147.458  91.146 131.042  0.00  0.00    +0.009 C 
ATOM     27  C2  T19     1     146.648  91.562 130.236  0.00  0.00    -0.070 C 
ENDBRANCH   6  27
ENDBRANCH   4  16
ENDBRANCH   3   4
ENDBRANCH   2   3
ENDBRANCH   1   2
BRANCH   1  28
ATOM     28  C22 T19     1     137.391  98.390 126.209  0.00  0.00    +0.236 C 
BRANCH  28  29
ATOM     29  O3  T19     1     137.861  99.055 127.397  0.00  0.00    -0.460 OA
BRANCH  29  30
ATOM     30  C23 T19     1     139.189  99.385 127.493  0.00  0.00    +0.360 C 
ATOM     31  O4  T19     1     139.927  99.392 126.519  0.00  0.00    -0.243 OA
BRANCH  30  32
ATOM     32  C24 T19     1     139.644  99.685 128.872  0.00  0.00    +0.170 A 
ATOM     33  N2  T19     1     139.813 100.935 129.334  0.00  0.00    -0.228 NA
ATOM     34  C25 T19     1     140.251 100.755 130.638  0.00  0.00    +0.205 A 
ATOM     35  N3  T19     1     140.311  99.422 130.944  0.00  0.00    -0.300 N 
ATOM     36  C26 T19     1     139.943  98.743 129.813  0.00  0.00    +0.073 A 
ATOM     37  C27 T19     1     139.960  97.226 129.824  0.00  0.00    +0.160 C 
ATOM     38  N4  T19     1     141.351  96.764 129.981  0.00  0.00    -0.216 NA
ATOM     39  C28 T19     1     142.140  97.145 130.939  0.00  0.00    +0.116 C 
ATOM     40  C35 T19     1     141.656  97.823 132.184  0.00  0.00    +0.006 A 
ATOM     41  C36 T19     1     142.083  97.332 133.435  0.00  0.00    +0.024 A 
ATOM     42  C37 T19     1     141.670  97.942 134.631  0.00  0.00    +0.025 A 
ATOM     43  C40 T19     1     140.816  99.056 134.590  0.00  0.00    +0.019 A 
ATOM     44  C41 T19     1     140.376  99.557 133.356  0.00  0.00    +0.028 A 
ATOM     45  C42 T19     1     140.801  98.952 132.157  0.00  0.00    +0.053 A 
BRANCH  39  46
ATOM     46  C29 T19     1     143.590  96.799 130.861  0.00  0.00    -0.019 A 
ATOM     47  C30 T19     1     144.497  97.667 130.219  0.00  0.00    +0.006 A 
ATOM     48  C31 T19     1     145.864  97.346 130.145  0.00  0.00    +0.000 A 
ATOM     49  C32 T19     1     146.336  96.152 130.709  0.00  0.00    +0.000 A 
ATOM     50  C33 T19     1     145.442  95.276 131.344  0.00  0.00    +0.000 A 
ATOM     51  C34 T19     1     144.076  95.598 131.417  0.00  0.00    +0.006 A 
ENDBRANCH  39  46
BRANCH  42  52
ATOM     52  C38 T19     1     142.112  97.422 135.892  0.00  0.00    -0.070 C 
ATOM     53  C39 T19     1     142.488  96.971 136.957  0.00  0.00    +0.009 C 
ENDBRANCH  42  52
ENDBRANCH  30  32
ENDBRANCH  29  30
ENDBRANCH  28  29
ENDBRANCH   1  28
TORSDOF 12
ENDMDL
MODEL 5
REMARK VINA RESULT:    -7.334      2.947      8.552
REMARK INTER + INTRA:         -17.268
REMARK INTER:                 -12.307
REMARK INTRA:                  -4.961
REMARK UNBOUND:                -4.789
REMARK  Name = ligands_pdb/TRN_CHEMBL505768.pdb
REMARK  12 active torsions:
REMARK  status: ('A' for Active; 'I' for Inactive)
REMARK    1  A    between atoms: C2_2  and  C3_3
REMARK    2  A    between atoms: C9_9  and  C10_10
REMARK    3  A    between atoms: C18_19  and  C19_20
REMARK    4  A    between atoms: C19_20  and  O2_22
REMARK    5  A    between atoms: O2_22  and  C20_23
REMARK    6  A    between atoms: C20_23  and  C21_24
REMARK    7  A    between atoms: C21_24  and  C22_25
REMARK    8  A    between atoms: C22_25  and  O3_26
REMARK    9  A    between atoms: O3_26  and  C23_27
REMARK   10  A    between atoms: C23_27  and  C24_29
REMARK   11  A    between atoms: C28_36  and  C29_37
REMARK   12  A    between atoms: C37_45  and  C38_46
REMARK                            x       y       z     vdW  Elec       q    Type
REMARK                         _______ _______ _______ _____ _____    ______ ____
ROOT
ATOM      1  C21 T19     1     148.720  95.699 125.615  0.00  0.00    +0.082 C 
ENDROOT
BRANCH   1   2
ATOM      2  C20 T19     1     148.218  94.467 126.394  0.00  0.00    +0.236 C 
BRANCH   2   3
ATOM      3  O2  T19     1     147.028  94.823 127.122  0.00  0.00    -0.460 OA
BRANCH   3   4
ATOM      4  C19 T19     1     146.738  94.161 128.286  0.00  0.00    +0.360 C 
ATOM      5  O1  T19     1     146.640  92.945 128.331  0.00  0.00    -0.243 OA
BRANCH   4  16
ATOM      6  C3  T19     1     143.782  96.368 134.989  0.00  0.00    +0.025 A 
ATOM      7  C4  T19     1     145.178  96.502 134.931  0.00  0.00    +0.019 A 
ATOM      8  C5  T19     1     145.843  96.381 133.702  0.00  0.00    +0.028 A 
ATOM      9  C6  T19     1     145.115  96.125 132.524  0.00  0.00    +0.053 A 
ATOM     10  C7  T19     1     143.705  95.992 132.572  0.00  0.00    +0.006 A 
ATOM     11  C8  T19     1     143.055  96.114 133.816  0.00  0.00    +0.024 A 
ATOM     12  C9  T19     1     142.882  95.727 131.353  0.00  0.00    +0.116 C 
ATOM     13  N1  T19     1     143.123  94.729 130.562  0.00  0.00    -0.216 NA
ATOM     14  C16 T19     1     144.403  94.001 130.563  0.00  0.00    +0.160 C 
ATOM     15  C17 T19     1     145.549  94.981 130.479  0.00  0.00    +0.073 A 
ATOM     16  C18 T19     1     146.573  95.047 129.465  0.00  0.00    +0.170 A 
ATOM     17  N5  T19     1     147.411  96.064 129.742  0.00  0.00    -0.228 NA
ATOM     18  C43 T19     1     146.958  96.624 130.854  0.00  0.00    +0.205 A 
ATOM     19  N6  T19     1     145.816  96.007 131.324  0.00  0.00    -0.300 N 
BRANCH  12  20
ATOM     20  C10 T19     1     141.672  96.570 131.127  0.00  0.00    -0.019 A 
ATOM     21  C11 T19     1     141.492  97.780 131.831  0.00  0.00    +0.006 A 
ATOM     22  C12 T19     1     140.350  98.569 131.620  0.00  0.00    +0.000 A 
ATOM     23  C13 T19     1     139.370  98.157 130.704  0.00  0.00    +0.000 A 
ATOM     24  C14 T19     1     139.533  96.951 130.004  0.00  0.00    +0.000 A 
ATOM     25  C15 T19     1     140.675  96.163 130.216  0.00  0.00    +0.006 A 
ENDBRANCH  12  20
BRANCH   6  27
ATOM     26  C1  T19     1     142.530  96.595 137.314  0.00  0.00    +0.009 C 
ATOM     27  C2  T19     1     143.100  96.487 136.246  0.00  0.00    -0.070 C 
ENDBRANCH   6  27
ENDBRANCH   4  16
ENDBRANCH   3   4
ENDBRANCH   2   3
ENDBRANCH   1   2
BRANCH   1  28
ATOM     28  C22 T19     1     148.543  95.496 124.098  0.00  0.00    +0.236 C 
BRANCH  28  29
ATOM     29  O3  T19     1     147.222  95.924 123.718  0.00  0.00    -0.460 OA
BRANCH  29  30
ATOM     30  C23 T19     1     146.341  94.998 123.219  0.00  0.00    +0.360 C 
ATOM     31  O4  T19     1     146.713  93.919 122.784  0.00  0.00    -0.243 OA
BRANCH  30  32
ATOM     32  C24 T19     1     144.925  95.441 123.219  0.00  0.00    +0.170 A 
ATOM     33  N2  T19     1     144.364  96.108 122.197  0.00  0.00    -0.228 NA
ATOM     34  C25 T19     1     143.061  96.329 122.615  0.00  0.00    +0.205 A 
ATOM     35  N3  T19     1     142.853  95.776 123.850  0.00  0.00    -0.300 N 
ATOM     36  C26 T19     1     144.046  95.229 124.241  0.00  0.00    +0.073 A 
ATOM     37  C27 T19     1     144.148  94.577 125.607  0.00  0.00    +0.160 C 
ATOM     38  N4  T19     1     143.969  95.610 126.644  0.00  0.00    -0.216 NA
ATOM     39  C28 T19     1     142.952  96.416 126.700  0.00  0.00    +0.116 C 
ATOM     40  C35 T19     1     141.681  96.192 125.939  0.00  0.00    +0.006 A 
ATOM     41  C36 T19     1     140.454  96.271 126.628  0.00  0.00    +0.024 A 
ATOM     42  C37 T19     1     139.234  96.084 125.957  0.00  0.00    +0.025 A 
ATOM     43  C40 T19     1     139.226  95.811 124.580  0.00  0.00    +0.019 A 
ATOM     44  C41 T19     1     140.437  95.724 123.877  0.00  0.00    +0.028 A 
ATOM     45  C42 T19     1     141.660  95.923 124.548  0.00  0.00    +0.053 A 
BRANCH  39  46
ATOM     46  C29 T19     1     142.996  97.568 127.646  0.00  0.00    -0.019 A 
ATOM     47  C30 T19     1     144.067  97.708 128.553  0.00  0.00    +0.006 A 
ATOM     48  C31 T19     1     144.113  98.793 129.445  0.00  0.00    +0.000 A 
ATOM     49  C32 T19     1     143.086  99.749 129.442  0.00  0.00    +0.000 A 
ATOM     50  C33 T19     1     142.011  99.617 128.550  0.00  0.00    +0.000 A 
ATOM     51  C34 T19     1     141.966  98.531 127.659  0.00  0.00    +0.006 A 
ENDBRANCH  39  46
BRANCH  42  52
ATOM     52  C38 T19     1     137.998  96.163 126.681  0.00  0.00    -0.070 C 
ATOM     53  C39 T19     1     136.948  96.220 127.292  0.00  0.00    +0.009 C 
ENDBRANCH  42  52
ENDBRANCH  30  32
ENDBRANCH  29  30
ENDBRANCH  28  29
ENDBRANCH   1  28
TORSDOF 12
ENDMDL
MODEL 6
REMARK VINA RESULT:    -7.280      1.857      8.207
REMARK INTER + INTRA:         -17.176
REMARK INTER:                 -14.372
REMARK INTRA:                  -2.804
REMARK UNBOUND:                -4.789
REMARK  Name = ligands_pdb/TRN_CHEMBL505768.pdb
REMARK  12 active torsions:
REMARK  status: ('A' for Active; 'I' for Inactive)
REMARK    1  A    between atoms: C2_2  and  C3_3
REMARK    2  A    between atoms: C9_9  and  C10_10
REMARK    3  A    between atoms: C18_19  and  C19_20
REMARK    4  A    between atoms: C19_20  and  O2_22
REMARK    5  A    between atoms: O2_22  and  C20_23
REMARK    6  A    between atoms: C20_23  and  C21_24
REMARK    7  A    between atoms: C21_24  and  C22_25
REMARK    8  A    between atoms: C22_25  and  O3_26
REMARK    9  A    between atoms: O3_26  and  C23_27
REMARK   10  A    between atoms: C23_27  and  C24_29
REMARK   11  A    between atoms: C28_36  and  C29_37
REMARK   12  A    between atoms: C37_45  and  C38_46
REMARK                            x       y       z     vdW  Elec       q    Type
REMARK                         _______ _______ _______ _____ _____    ______ ____
ROOT
ATOM      1  C21 T19     1     138.749  99.525 127.450  0.00  0.00    +0.082 C 
ENDROOT
BRANCH   1   2
ATOM      2  C20 T19     1     139.876 100.562 127.275  0.00  0.00    +0.236 C 
BRANCH   2   3
ATOM      3  O2  T19     1     140.471 100.831 128.558  0.00  0.00    -0.460 OA
BRANCH   3   4
ATOM      4  C19 T19     1     141.555 100.093 128.957  0.00  0.00    +0.360 C 
ATOM      5  O1  T19     1     142.626 100.153 128.374  0.00  0.00    -0.243 OA
BRANCH   4  16
ATOM      6  C3  T19     1     142.826  97.476 136.033  0.00  0.00    +0.025 A 
ATOM      7  C4  T19     1     141.469  97.710 135.767  0.00  0.00    +0.019 A 
ATOM      8  C5  T19     1     141.043  97.949 134.452  0.00  0.00    +0.028 A 
ATOM      9  C6  T19     1     141.973  97.955 133.395  0.00  0.00    +0.053 A 
ATOM     10  C7  T19     1     143.346  97.716 133.653  0.00  0.00    +0.006 A 
ATOM     11  C8  T19     1     143.756  97.481 134.980  0.00  0.00    +0.024 A 
ATOM     12  C9  T19     1     144.377  97.704 132.570  0.00  0.00    +0.116 C 
ATOM     13  N1  T19     1     144.525  98.696 131.748  0.00  0.00    -0.216 NA
ATOM     14  C16 T19     1     143.497  99.733 131.557  0.00  0.00    +0.160 C 
ATOM     15  C17 T19     1     142.156  99.084 131.305  0.00  0.00    +0.073 A 
ATOM     16  C18 T19     1     141.308  99.245 130.150  0.00  0.00    +0.170 A 
ATOM     17  N5  T19     1     140.199  98.497 130.301  0.00  0.00    -0.228 NA
ATOM     18  C43 T19     1     140.324  97.885 131.470  0.00  0.00    +0.205 A 
ATOM     19  N6  T19     1     141.509  98.201 132.104  0.00  0.00    -0.300 N 
BRANCH  12  20
ATOM     20  C10 T19     1     145.339  96.565 132.530  0.00  0.00    -0.019 A 
ATOM     21  C11 T19     1     145.605  95.885 131.323  0.00  0.00    +0.006 A 
ATOM     22  C12 T19     1     146.508  94.811 131.290  0.00  0.00    +0.000 A 
ATOM     23  C13 T19     1     147.156  94.400 132.465  0.00  0.00    +0.000 A 
ATOM     24  C14 T19     1     146.895  95.063 133.674  0.00  0.00    +0.000 A 
ATOM     25  C15 T19     1     145.991  96.137 133.706  0.00  0.00    +0.006 A 
ENDBRANCH  12  20
BRANCH   6  27
ATOM     26  C1  T19     1     143.648  97.035 138.514  0.00  0.00    +0.009 C 
ATOM     27  C2  T19     1     143.265  97.236 137.377  0.00  0.00    -0.070 C 
ENDBRANCH   6  27
ENDBRANCH   4  16
ENDBRANCH   3   4
ENDBRANCH   2   3
ENDBRANCH   1   2
BRANCH   1  28
ATOM     28  C22 T19     1     138.156  99.126 126.084  0.00  0.00    +0.236 C 
BRANCH  28  29
ATOM     29  O3  T19     1     137.471  97.867 126.219  0.00  0.00    -0.460 OA
BRANCH  29  30
ATOM     30  C23 T19     1     138.185  96.759 126.600  0.00  0.00    +0.360 C 
ATOM     31  O4  T19     1     137.964  96.175 127.650  0.00  0.00    -0.243 OA
BRANCH  30  32
ATOM     32  C24 T19     1     139.261  96.372 125.655  0.00  0.00    +0.170 A 
ATOM     33  N2  T19     1     139.020  95.878 124.430  0.00  0.00    -0.228 NA
ATOM     34  C25 T19     1     140.283  95.646 123.906  0.00  0.00    +0.205 A 
ATOM     35  N3  T19     1     141.249  96.025 124.799  0.00  0.00    -0.300 N 
ATOM     36  C26 T19     1     140.597  96.468 125.919  0.00  0.00    +0.073 A 
ATOM     37  C27 T19     1     141.410  96.915 127.118  0.00  0.00    +0.160 C 
ATOM     38  N4  T19     1     142.134  95.753 127.666  0.00  0.00    -0.216 NA
ATOM     39  C28 T19     1     142.910  94.983 126.965  0.00  0.00    +0.116 C 
ATOM     40  C35 T19     1     143.439  95.359 125.614  0.00  0.00    +0.006 A 
ATOM     41  C36 T19     1     144.821  95.227 125.365  0.00  0.00    +0.024 A 
ATOM     42  C37 T19     1     145.365  95.551 124.111  0.00  0.00    +0.025 A 
ATOM     43  C40 T19     1     144.528  96.017 123.085  0.00  0.00    +0.019 A 
ATOM     44  C41 T19     1     143.151  96.159 123.314  0.00  0.00    +0.028 A 
ATOM     45  C42 T19     1     142.605  95.823 124.568  0.00  0.00    +0.053 A 
BRANCH  39  46
ATOM     46  C29 T19     1     143.397  93.708 127.566  0.00  0.00    -0.019 A 
ATOM     47  C30 T19     1     144.175  93.723 128.743  0.00  0.00    +0.006 A 
ATOM     48  C31 T19     1     144.633  92.523 129.314  0.00  0.00    +0.000 A 
ATOM     49  C32 T19     1     144.320  91.295 128.712  0.00  0.00    +0.000 A 
ATOM     50  C33 T19     1     143.553  91.267 127.538  0.00  0.00    +0.000 A 
ATOM     51  C34 T19     1     143.096  92.467 126.967  0.00  0.00    +0.006 A 
ENDBRANCH  39  46
BRANCH  42  52
ATOM     52  C38 T19     1     146.774  95.414 123.883  0.00  0.00    -0.070 C 
ATOM     53  C39 T19     1     147.969  95.308 123.686  0.00  0.00    +0.009 C 
ENDBRANCH  42  52
ENDBRANCH  30  32
ENDBRANCH  29  30
ENDBRANCH  28  29
ENDBRANCH   1  28
TORSDOF 12
ENDMDL
MODEL 7
REMARK VINA RESULT:    -7.148      2.889      8.601
REMARK INTER + INTRA:         -16.951
REMARK INTER:                 -11.951
REMARK INTRA:                  -5.000
REMARK UNBOUND:                -4.789
REMARK  Name = ligands_pdb/TRN_CHEMBL505768.pdb
REMARK  12 active torsions:
REMARK  status: ('A' for Active; 'I' for Inactive)
REMARK    1  A    between atoms: C2_2  and  C3_3
REMARK    2  A    between atoms: C9_9  and  C10_10
REMARK    3  A    between atoms: C18_19  and  C19_20
REMARK    4  A    between atoms: C19_20  and  O2_22
REMARK    5  A    between atoms: O2_22  and  C20_23
REMARK    6  A    between atoms: C20_23  and  C21_24
REMARK    7  A    between atoms: C21_24  and  C22_25
REMARK    8  A    between atoms: C22_25  and  O3_26
REMARK    9  A    between atoms: O3_26  and  C23_27
REMARK   10  A    between atoms: C23_27  and  C24_29
REMARK   11  A    between atoms: C28_36  and  C29_37
REMARK   12  A    between atoms: C37_45  and  C38_46
REMARK                            x       y       z     vdW  Elec       q    Type
REMARK                         _______ _______ _______ _____ _____    ______ ____
ROOT
ATOM      1  C21 T19     1     145.190  90.841 127.499  0.00  0.00    +0.082 C 
ENDROOT
BRANCH   1   2
ATOM      2  C20 T19     1     146.359  91.448 128.299  0.00  0.00    +0.236 C 
BRANCH   2   3
ATOM      3  O2  T19     1     145.856  92.502 129.142  0.00  0.00    -0.460 OA
BRANCH   3   4
ATOM      4  C19 T19     1     146.224  93.796 128.880  0.00  0.00    +0.360 C 
ATOM      5  O1  T19     1     146.537  94.165 127.759  0.00  0.00    -0.243 OA
BRANCH   4  16
ATOM      6  C3  T19     1     143.354  96.683 135.358  0.00  0.00    +0.025 A 
ATOM      7  C4  T19     1     144.734  96.440 135.427  0.00  0.00    +0.019 A 
ATOM      8  C5  T19     1     145.454  96.150 134.258  0.00  0.00    +0.028 A 
ATOM      9  C6  T19     1     144.797  96.103 133.014  0.00  0.00    +0.053 A 
ATOM     10  C7  T19     1     143.404  96.352 132.934  0.00  0.00    +0.006 A 
ATOM     11  C8  T19     1     142.697  96.638 134.118  0.00  0.00    +0.024 A 
ATOM     12  C9  T19     1     142.656  96.322 131.639  0.00  0.00    +0.116 C 
ATOM     13  N1  T19     1     142.696  95.299 130.844  0.00  0.00    -0.216 NA
ATOM     14  C16 T19     1     143.731  94.255 130.938  0.00  0.00    +0.160 C 
ATOM     15  C17 T19     1     145.098  94.894 130.983  0.00  0.00    +0.073 A 
ATOM     16  C18 T19     1     146.192  94.689 130.065  0.00  0.00    +0.170 A 
ATOM     17  N5  T19     1     147.241  95.443 130.445  0.00  0.00    -0.228 NA
ATOM     18  C43 T19     1     146.852  96.100 131.527  0.00  0.00    +0.205 A 
ATOM     19  N6  T19     1     145.549  95.808 131.877  0.00  0.00    -0.300 N 
BRANCH  12  20
ATOM     20  C10 T19     1     141.740  97.458 131.333  0.00  0.00    -0.019 A 
ATOM     21  C11 T19     1     141.992  98.749 131.845  0.00  0.00    +0.006 A 
ATOM     22  C12 T19     1     141.126  99.816 131.558  0.00  0.00    +0.000 A 
ATOM     23  C13 T19     1     139.992  99.605 130.757  0.00  0.00    +0.000 A 
ATOM     24  C14 T19     1     139.726  98.325 130.248  0.00  0.00    +0.000 A 
ATOM     25  C15 T19     1     140.593  97.259 130.535  0.00  0.00    +0.006 A 
ENDBRANCH  12  20
BRANCH   6  27
ATOM     26  C1  T19     1     141.997  97.218 137.571  0.00  0.00    +0.009 C 
ATOM     27  C2  T19     1     142.615  96.974 136.552  0.00  0.00    -0.070 C 
ENDBRANCH   6  27
ENDBRANCH   4  16
ENDBRANCH   3   4
ENDBRANCH   2   3
ENDBRANCH   1   2
BRANCH   1  28
ATOM     28  C22 T19     1     145.614  90.555 126.045  0.00  0.00    +0.236 C 
BRANCH  28  29
ATOM     29  O3  T19     1     144.857  91.403 125.160  0.00  0.00    -0.460 OA
BRANCH  29  30
ATOM     30  C23 T19     1     145.387  92.611 124.784  0.00  0.00    +0.360 C 
ATOM     31  O4  T19     1     146.590  92.821 124.790  0.00  0.00    -0.243 OA
BRANCH  30  32
ATOM     32  C24 T19     1     144.376  93.632 124.415  0.00  0.00    +0.170 A 
ATOM     33  N2  T19     1     144.307  94.191 123.195  0.00  0.00    -0.228 NA
ATOM     34  C25 T19     1     143.248  95.080 123.293  0.00  0.00    +0.205 A 
ATOM     35  N3  T19     1     142.687  95.024 124.541  0.00  0.00    -0.300 N 
ATOM     36  C26 T19     1     143.419  94.116 125.259  0.00  0.00    +0.073 A 
ATOM     37  C27 T19     1     143.066  93.868 126.713  0.00  0.00    +0.160 C 
ATOM     38  N4  T19     1     143.324  95.098 127.484  0.00  0.00    -0.216 NA
ATOM     39  C28 T19     1     142.833  96.262 127.183  0.00  0.00    +0.116 C 
ATOM     40  C35 T19     1     141.688  96.452 126.235  0.00  0.00    +0.006 A 
ATOM     41  C36 T19     1     140.601  97.256 126.634  0.00  0.00    +0.024 A 
ATOM     42  C37 T19     1     139.511  97.478 125.776  0.00  0.00    +0.025 A 
ATOM     43  C40 T19     1     139.493  96.891 124.501  0.00  0.00    +0.019 A 
ATOM     44  C41 T19     1     140.564  96.085 124.086  0.00  0.00    +0.028 A 
ATOM     45  C42 T19     1     141.662  95.872 124.942  0.00  0.00    +0.053 A 
BRANCH  39  46
ATOM     46  C29 T19     1     143.350  97.469 127.890  0.00  0.00    -0.019 A 
ATOM     47  C30 T19     1     142.621  98.676 127.871  0.00  0.00    +0.006 A 
ATOM     48  C31 T19     1     143.104  99.815 128.538  0.00  0.00    +0.000 A 
ATOM     49  C32 T19     1     144.324  99.760 129.228  0.00  0.00    +0.000 A 
ATOM     50  C33 T19     1     145.063  98.567 129.248  0.00  0.00    +0.000 A 
ATOM     51  C34 T19     1     144.579  97.429 128.581  0.00  0.00    +0.006 A 
ENDBRANCH  39  46
BRANCH  42  52
ATOM     52  C38 T19     1     138.414  98.294 126.207  0.00  0.00    -0.070 C 
ATOM     53  C39 T19     1     137.488  98.995 126.567  0.00  0.00    +0.009 C 
ENDBRANCH  42  52
ENDBRANCH  30  32
ENDBRANCH  29  30
ENDBRANCH  28  29
ENDBRANCH   1  28
TORSDOF 12
ENDMDL
MODEL 8
REMARK VINA RESULT:    -7.110      1.723      7.489
REMARK INTER + INTRA:         -16.886
REMARK INTER:                 -12.905
REMARK INTRA:                  -3.981
REMARK UNBOUND:                -4.789
REMARK  Name = ligands_pdb/TRN_CHEMBL505768.pdb
REMARK  12 active torsions:
REMARK  status: ('A' for Active; 'I' for Inactive)
REMARK    1  A    between atoms: C2_2  and  C3_3
REMARK    2  A    between atoms: C9_9  and  C10_10
REMARK    3  A    between atoms: C18_19  and  C19_20
REMARK    4  A    between atoms: C19_20  and  O2_22
REMARK    5  A    between atoms: O2_22  and  C20_23
REMARK    6  A    between atoms: C20_23  and  C21_24
REMARK    7  A    between atoms: C21_24  and  C22_25
REMARK    8  A    between atoms: C22_25  and  O3_26
REMARK    9  A    between atoms: O3_26  and  C23_27
REMARK   10  A    between atoms: C23_27  and  C24_29
REMARK   11  A    between atoms: C28_36  and  C29_37
REMARK   12  A    between atoms: C37_45  and  C38_46
REMARK                            x       y       z     vdW  Elec       q    Type
REMARK                         _______ _______ _______ _____ _____    ______ ____
ROOT
ATOM      1  C21 T19     1     136.870  97.426 126.491  0.00  0.00    +0.082 C 
ENDROOT
BRANCH   1   2
ATOM      2  C20 T19     1     137.768  98.595 126.039  0.00  0.00    +0.236 C 
BRANCH   2   3
ATOM      3  O2  T19     1     138.065  99.428 127.175  0.00  0.00    -0.460 OA
BRANCH   3   4
ATOM      4  C19 T19     1     139.365  99.548 127.590  0.00  0.00    +0.360 C 
ATOM      5  O1  T19     1     140.175 100.234 126.987  0.00  0.00    -0.243 OA
BRANCH   4  16
ATOM      6  C3  T19     1     143.265  97.938 133.973  0.00  0.00    +0.025 A 
ATOM      7  C4  T19     1     141.874  97.880 134.147  0.00  0.00    +0.019 A 
ATOM      8  C5  T19     1     141.026  97.901 133.029  0.00  0.00    +0.028 A 
ATOM      9  C6  T19     1     141.566  97.981 131.732  0.00  0.00    +0.053 A 
ATOM     10  C7  T19     1     142.969  98.037 131.545  0.00  0.00    +0.006 A 
ATOM     11  C8  T19     1     143.805  98.018 132.679  0.00  0.00    +0.024 A 
ATOM     12  C9  T19     1     143.597  98.115 130.190  0.00  0.00    +0.116 C 
ATOM     13  N1  T19     1     143.272  99.031 129.332  0.00  0.00    -0.216 NA
ATOM     14  C16 T19     1     142.038  99.827 129.444  0.00  0.00    +0.160 C 
ATOM     15  C17 T19     1     140.856  98.911 129.656  0.00  0.00    +0.073 A 
ATOM     16  C18 T19     1     139.682  98.791 128.827  0.00  0.00    +0.170 A 
ATOM     17  N5  T19     1     138.859  97.862 129.350  0.00  0.00    -0.228 NA
ATOM     18  C43 T19     1     139.462  97.405 130.437  0.00  0.00    +0.205 A 
ATOM     19  N6  T19     1     140.688  98.004 130.648  0.00  0.00    -0.300 N 
BRANCH  12  20
ATOM     20  C10 T19     1     144.722  97.184 129.884  0.00  0.00    -0.019 A 
ATOM     21  C11 T19     1     144.679  95.837 130.302  0.00  0.00    +0.006 A 
ATOM     22  C12 T19     1     145.741  94.964 130.015  0.00  0.00    +0.000 A 
ATOM     23  C13 T19     1     146.862  95.428 129.309  0.00  0.00    +0.000 A 
ATOM     24  C14 T19     1     146.920  96.768 128.895  0.00  0.00    +0.000 A 
ATOM     25  C15 T19     1     145.857  97.640 129.181  0.00  0.00    +0.006 A 
ENDBRANCH  12  20
BRANCH   6  27
ATOM     26  C1  T19     1     144.864  97.900 136.086  0.00  0.00    +0.009 C 
ATOM     27  C2  T19     1     144.134  97.922 135.114  0.00  0.00    -0.070 C 
ENDBRANCH   6  27
ENDBRANCH   4  16
ENDBRANCH   3   4
ENDBRANCH   2   3
ENDBRANCH   1   2
BRANCH   1  28
ATOM     28  C22 T19     1     137.590  96.077 126.297  0.00  0.00    +0.236 C 
BRANCH  28  29
ATOM     29  O3  T19     1     138.603  96.227 125.285  0.00  0.00    -0.460 OA
BRANCH  29  30
ATOM     30  C23 T19     1     138.858  95.177 124.439  0.00  0.00    +0.360 C 
ATOM     31  O4  T19     1     137.982  94.401 124.087  0.00  0.00    -0.243 OA
BRANCH  30  32
ATOM     32  C24 T19     1     140.280  95.051 124.035  0.00  0.00    +0.170 A 
ATOM     33  N2  T19     1     140.663  94.688 122.800  0.00  0.00    -0.228 NA
ATOM     34  C25 T19     1     142.048  94.685 122.864  0.00  0.00    +0.205 A 
ATOM     35  N3  T19     1     142.470  95.069 124.109  0.00  0.00    -0.300 N 
ATOM     36  C26 T19     1     141.344  95.282 124.858  0.00  0.00    +0.073 A 
ATOM     37  C27 T19     1     141.489  95.675 126.315  0.00  0.00    +0.160 C 
ATOM     38  N4  T19     1     142.100  94.555 127.054  0.00  0.00    -0.216 NA
ATOM     39  C28 T19     1     143.217  93.984 126.717  0.00  0.00    +0.116 C 
ATOM     40  C35 T19     1     144.193  94.590 125.755  0.00  0.00    +0.006 A 
ATOM     41  C36 T19     1     145.552  94.667 126.123  0.00  0.00    +0.024 A 
ATOM     42  C37 T19     1     146.509  95.211 125.251  0.00  0.00    +0.025 A 
ATOM     43  C40 T19     1     146.115  95.692 123.992  0.00  0.00    +0.019 A 
ATOM     44  C41 T19     1     144.767  95.629 123.608  0.00  0.00    +0.028 A 
ATOM     45  C42 T19     1     143.810  95.072 124.479  0.00  0.00    +0.053 A 
BRANCH  39  46
ATOM     46  C29 T19     1     143.613  92.715 127.394  0.00  0.00    -0.019 A 
ATOM     47  C30 T19     1     144.068  91.614 126.640  0.00  0.00    +0.006 A 
ATOM     48  C31 T19     1     144.443  90.418 127.274  0.00  0.00    +0.000 A 
ATOM     49  C32 T19     1     144.365  90.309 128.671  0.00  0.00    +0.000 A 
ATOM     50  C33 T19     1     143.907  91.395 129.432  0.00  0.00    +0.000 A 
ATOM     51  C34 T19     1     143.531  92.590 128.797  0.00  0.00    +0.006 A 
ENDBRANCH  39  46
BRANCH  42  52
ATOM     52  C38 T19     1     147.884  95.284 125.650  0.00  0.00    -0.070 C 
ATOM     53  C39 T19     1     149.048  95.339 125.996  0.00  0.00    +0.009 C 
ENDBRANCH  42  52
ENDBRANCH  30  32
ENDBRANCH  29  30
ENDBRANCH  28  29
ENDBRANCH   1  28
TORSDOF 12
ENDMDL
MODEL 9
REMARK VINA RESULT:    -7.038      3.207      7.004
REMARK INTER + INTRA:         -16.764
REMARK INTER:                 -12.123
REMARK INTRA:                  -4.641
REMARK UNBOUND:                -4.789
REMARK  Name = ligands_pdb/TRN_CHEMBL505768.pdb
REMARK  12 active torsions:
REMARK  status: ('A' for Active; 'I' for Inactive)
REMARK    1  A    between atoms: C2_2  and  C3_3
REMARK    2  A    between atoms: C9_9  and  C10_10
REMARK    3  A    between atoms: C18_19  and  C19_20
REMARK    4  A    between atoms: C19_20  and  O2_22
REMARK    5  A    between atoms: O2_22  and  C20_23
REMARK    6  A    between atoms: C20_23  and  C21_24
REMARK    7  A    between atoms: C21_24  and  C22_25
REMARK    8  A    between atoms: C22_25  and  O3_26
REMARK    9  A    between atoms: O3_26  and  C23_27
REMARK   10  A    between atoms: C23_27  and  C24_29
REMARK   11  A    between atoms: C28_36  and  C29_37
REMARK   12  A    between atoms: C37_45  and  C38_46
REMARK                            x       y       z     vdW  Elec       q    Type
REMARK                         _______ _______ _______ _____ _____    ______ ____
ROOT
ATOM      1  C21 T19     1     142.924  97.032 134.988  0.00  0.00    +0.082 C 
ENDROOT
BRANCH   1   2
ATOM      2  C20 T19     1     144.129  97.260 134.055  0.00  0.00    +0.236 C 
BRANCH   2   3
ATOM      3  O2  T19     1     144.269  96.125 133.180  0.00  0.00    -0.460 OA
BRANCH   3   4
ATOM      4  C19 T19     1     144.836  96.303 131.945  0.00  0.00    +0.360 C 
ATOM      5  O1  T19     1     145.502  97.290 131.676  0.00  0.00    -0.243 OA
BRANCH   4  16
ATOM      6  C3  T19     1     146.733  90.517 127.311  0.00  0.00    +0.025 A 
ATOM      7  C4  T19     1     145.633  90.228 128.133  0.00  0.00    +0.019 A 
ATOM      8  C5  T19     1     145.007  91.256 128.853  0.00  0.00    +0.028 A 
ATOM      9  C6  T19     1     145.477  92.579 128.755  0.00  0.00    +0.053 A 
ATOM     10  C7  T19     1     146.586  92.882 127.926  0.00  0.00    +0.006 A 
ATOM     11  C8  T19     1     147.204  91.837 127.212  0.00  0.00    +0.024 A 
ATOM     12  C9  T19     1     147.124  94.269 127.778  0.00  0.00    +0.116 C 
ATOM     13  N1  T19     1     147.473  94.985 128.802  0.00  0.00    -0.216 NA
ATOM     14  C16 T19     1     147.045  94.674 130.176  0.00  0.00    +0.160 C 
ATOM     15  C17 T19     1     145.550  94.464 130.212  0.00  0.00    +0.073 A 
ATOM     16  C18 T19     1     144.581  95.193 130.993  0.00  0.00    +0.170 A 
ATOM     17  N5  T19     1     143.350  94.709 130.743  0.00  0.00    -0.228 NA
ATOM     18  C43 T19     1     143.508  93.739 129.855  0.00  0.00    +0.205 A 
ATOM     19  N6  T19     1     144.829  93.570 129.492  0.00  0.00    -0.300 N 
BRANCH  12  20
ATOM     20  C10 T19     1     147.381  94.779 126.401  0.00  0.00    -0.019 A 
ATOM     21  C11 T19     1     146.408  94.649 125.388  0.00  0.00    +0.006 A 
ATOM     22  C12 T19     1     146.655  95.126 124.091  0.00  0.00    +0.000 A 
ATOM     23  C13 T19     1     147.882  95.737 123.788  0.00  0.00    +0.000 A 
ATOM     24  C14 T19     1     148.861  95.865 124.784  0.00  0.00    +0.000 A 
ATOM     25  C15 T19     1     148.613  95.388 126.081  0.00  0.00    +0.006 A 
ENDBRANCH  12  20
BRANCH   6  27
ATOM     26  C1  T19     1     147.936  88.582 125.958  0.00  0.00    +0.009 C 
ATOM     27  C2  T19     1     147.379  89.467 126.578  0.00  0.00    -0.070 C 
ENDBRANCH   6  27
ENDBRANCH   4  16
ENDBRANCH   3   4
ENDBRANCH   2   3
ENDBRANCH   1   2
BRANCH   1  28
ATOM     28  C22 T19     1     141.740  97.931 134.580  0.00  0.00    +0.236 C 
BRANCH  28  29
ATOM     29  O3  T19     1     142.250  99.159 134.029  0.00  0.00    -0.460 OA
BRANCH  29  30
ATOM     30  C23 T19     1     141.617  99.716 132.948  0.00  0.00    +0.360 C 
ATOM     31  O4  T19     1     140.627 100.422 133.069  0.00  0.00    -0.243 OA
BRANCH  30  32
ATOM     32  C24 T19     1     142.212  99.353 131.638  0.00  0.00    +0.170 A 
ATOM     33  N2  T19     1     143.119 100.115 131.006  0.00  0.00    -0.228 NA
ATOM     34  C25 T19     1     143.387  99.419 129.837  0.00  0.00    +0.205 A 
ATOM     35  N3  T19     1     142.670  98.254 129.798  0.00  0.00    -0.300 N 
ATOM     36  C26 T19     1     141.908  98.223 130.935  0.00  0.00    +0.073 A 
ATOM     37  C27 T19     1     140.958  97.062 131.156  0.00  0.00    +0.160 C 
ATOM     38  N4  T19     1     139.905  97.102 130.124  0.00  0.00    -0.216 NA
ATOM     39  C28 T19     1     140.140  97.144 128.847  0.00  0.00    +0.116 C 
ATOM     40  C35 T19     1     141.473  96.819 128.244  0.00  0.00    +0.006 A 
ATOM     41  C36 T19     1     141.528  95.910 127.168  0.00  0.00    +0.024 A 
ATOM     42  C37 T19     1     142.750  95.583 126.558  0.00  0.00    +0.025 A 
ATOM     43  C40 T19     1     143.941  96.163 127.023  0.00  0.00    +0.019 A 
ATOM     44  C41 T19     1     143.908  97.067 128.095  0.00  0.00    +0.028 A 
ATOM     45  C42 T19     1     142.681  97.402 128.699  0.00  0.00    +0.053 A 
BRANCH  39  46
ATOM     46  C29 T19     1     139.010  97.421 127.914  0.00  0.00    -0.019 A 
ATOM     47  C30 T19     1     138.043  96.429 127.648  0.00  0.00    +0.006 A 
ATOM     48  C31 T19     1     136.975  96.687 126.771  0.00  0.00    +0.000 A 
ATOM     49  C32 T19     1     136.865  97.940 126.149  0.00  0.00    +0.000 A 
ATOM     50  C33 T19     1     137.825  98.932 126.399  0.00  0.00    +0.000 A 
ATOM     51  C34 T19     1     138.892  98.673 127.275  0.00  0.00    +0.006 A 
ENDBRANCH  39  46
BRANCH  42  52
ATOM     52  C38 T19     1     142.782  94.651 125.468  0.00  0.00    -0.070 C 
ATOM     53  C39 T19     1     142.809  93.870 124.538  0.00  0.00    +0.009 C 
ENDBRANCH  42  52
ENDBRANCH  30  32
ENDBRANCH  29  30
ENDBRANCH  28  29
ENDBRANCH   1  28
TORSDOF 12
ENDMDL
MODEL 10
REMARK VINA RESULT:    -6.814      2.827      6.641
REMARK INTER + INTRA:         -16.383
REMARK INTER:                 -11.832
REMARK INTRA:                  -4.551
REMARK UNBOUND:                -4.789
REMARK  Name = ligands_pdb/TRN_CHEMBL505768.pdb
REMARK  12 active torsions:
REMARK  status: ('A' for Active; 'I' for Inactive)
REMARK    1  A    between atoms: C2_2  and  C3_3
REMARK    2  A    between atoms: C9_9  and  C10_10
REMARK    3  A    between atoms: C18_19  and  C19_20
REMARK    4  A    between atoms: C19_20  and  O2_22
REMARK    5  A    between atoms: O2_22  and  C20_23
REMARK    6  A    between atoms: C20_23  and  C21_24
REMARK    7  A    between atoms: C21_24  and  C22_25
REMARK    8  A    between atoms: C22_25  and  O3_26
REMARK    9  A    between atoms: O3_26  and  C23_27
REMARK   10  A    between atoms: C23_27  and  C24_29
REMARK   11  A    between atoms: C28_36  and  C29_37
REMARK   12  A    between atoms: C37_45  and  C38_46
REMARK                            x       y       z     vdW  Elec       q    Type
REMARK                         _______ _______ _______ _____ _____    ______ ____
ROOT
ATOM      1  C21 T19     1     142.720  99.795 132.238  0.00  0.00    +0.082 C 
ENDROOT
BRANCH   1   2
ATOM      2  C20 T19     1     141.312  99.573 131.651  0.00  0.00    +0.236 C 
BRANCH   2   3
ATOM      3  O2  T19     1     141.436  99.052 130.314  0.00  0.00    -0.460 OA
BRANCH   3   4
ATOM      4  C19 T19     1     141.096  99.850 129.254  0.00  0.00    +0.360 C 
ATOM      5  O1  T19     1     141.404 101.031 129.210  0.00  0.00    -0.243 OA
BRANCH   4  16
ATOM      6  C3  T19     1     139.033  93.870 124.950  0.00  0.00    +0.025 A 
ATOM      7  C4  T19     1     137.944  94.647 125.374  0.00  0.00    +0.019 A 
ATOM      8  C5  T19     1     138.163  95.905 125.954  0.00  0.00    +0.028 A 
ATOM      9  C6  T19     1     139.474  96.394 126.112  0.00  0.00    +0.053 A 
ATOM     10  C7  T19     1     140.580  95.619 125.684  0.00  0.00    +0.006 A 
ATOM     11  C8  T19     1     140.341  94.356 125.107  0.00  0.00    +0.024 A 
ATOM     12  C9  T19     1     141.992  96.091 125.820  0.00  0.00    +0.116 C 
ATOM     13  N1  T19     1     142.482  96.479 126.957  0.00  0.00    -0.216 NA
ATOM     14  C16 T19     1     141.638  96.842 128.107  0.00  0.00    +0.160 C 
ATOM     15  C17 T19     1     140.573  97.821 127.672  0.00  0.00    +0.073 A 
ATOM     16  C18 T19     1     140.345  99.151 128.181  0.00  0.00    +0.170 A 
ATOM     17  N5  T19     1     139.304  99.706 127.532  0.00  0.00    -0.228 NA
ATOM     18  C43 T19     1     138.891  98.802 126.657  0.00  0.00    +0.205 A 
ATOM     19  N6  T19     1     139.648  97.648 126.697  0.00  0.00    -0.300 N 
BRANCH  12  20
ATOM     20  C10 T19     1     142.887  95.982 124.632  0.00  0.00    -0.019 A 
ATOM     21  C11 T19     1     142.480  96.475 123.374  0.00  0.00    +0.006 A 
ATOM     22  C12 T19     1     143.322  96.367 122.256  0.00  0.00    +0.000 A 
ATOM     23  C13 T19     1     144.582  95.761 122.380  0.00  0.00    +0.000 A 
ATOM     24  C14 T19     1     144.995  95.259 123.623  0.00  0.00    +0.000 A 
ATOM     25  C15 T19     1     144.152  95.368 124.742  0.00  0.00    +0.006 A 
ENDBRANCH  12  20
BRANCH   6  27
ATOM     26  C1  T19     1     138.629  91.491 123.854  0.00  0.00    +0.009 C 
ATOM     27  C2  T19     1     138.812  92.581 124.362  0.00  0.00    -0.070 C 
ENDBRANCH   6  27
ENDBRANCH   4  16
ENDBRANCH   3   4
ENDBRANCH   2   3
ENDBRANCH   1   2
BRANCH   1  28
ATOM     28  C22 T19     1     143.600  98.546 132.035  0.00  0.00    +0.236 C 
BRANCH  28  29
ATOM     29  O3  T19     1     144.787  98.920 131.310  0.00  0.00    -0.460 OA
BRANCH  29  30
ATOM     30  C23 T19     1     145.047  98.319 130.105  0.00  0.00    +0.360 C 
ATOM     31  O4  T19     1     144.570  98.732 129.059  0.00  0.00    -0.243 OA
BRANCH  30  32
ATOM     32  C24 T19     1     145.912  97.118 130.196  0.00  0.00    +0.170 A 
ATOM     33  N2  T19     1     147.253  97.172 130.147  0.00  0.00    -0.228 NA
ATOM     34  C25 T19     1     147.648  95.847 130.253  0.00  0.00    +0.205 A 
ATOM     35  N3  T19     1     146.557  95.032 130.391  0.00  0.00    -0.300 N 
ATOM     36  C26 T19     1     145.453  95.840 130.335  0.00  0.00    +0.073 A 
ATOM     37  C27 T19     1     144.074  95.213 130.412  0.00  0.00    +0.160 C 
ATOM     38  N4  T19     1     143.861  94.377 129.216  0.00  0.00    -0.216 NA
ATOM     39  C28 T19     1     144.670  93.435 128.834  0.00  0.00    +0.116 C 
ATOM     40  C35 T19     1     145.727  92.849 129.718  0.00  0.00    +0.006 A 
ATOM     41  C36 T19     1     145.816  91.446 129.832  0.00  0.00    +0.024 A 
ATOM     42  C37 T19     1     146.799  90.847 130.637  0.00  0.00    +0.025 A 
ATOM     43  C40 T19     1     147.710  91.648 131.344  0.00  0.00    +0.019 A 
ATOM     44  C41 T19     1     147.635  93.045 131.247  0.00  0.00    +0.028 A 
ATOM     45  C42 T19     1     146.656  93.646 130.432  0.00  0.00    +0.053 A 
BRANCH  39  46
ATOM     46  C29 T19     1     144.478  92.822 127.488  0.00  0.00    -0.019 A 
ATOM     47  C30 T19     1     143.182  92.523 127.016  0.00  0.00    +0.006 A 
ATOM     48  C31 T19     1     142.997  91.947 125.748  0.00  0.00    +0.000 A 
ATOM     49  C32 T19     1     144.106  91.660 124.938  0.00  0.00    +0.000 A 
ATOM     50  C33 T19     1     145.400  91.945 125.399  0.00  0.00    +0.000 A 
ATOM     51  C34 T19     1     145.585  92.520 126.667  0.00  0.00    +0.006 A 
ENDBRANCH  39  46
BRANCH  42  52
ATOM     52  C38 T19     1     146.867  89.418 130.742  0.00  0.00    -0.070 C 
ATOM     53  C39 T19     1     146.929  88.208 130.841  0.00  0.00    +0.009 C 
ENDBRANCH  42  52
ENDBRANCH  30  32
ENDBRANCH  29  30
ENDBRANCH  28  29
ENDBRANCH   1  28
TORSDOF 12
ENDMDL
