MODEL 1
REMARK VINA RESULT:    -8.801      0.000      0.000
REMARK INTER + INTRA:         -11.618
REMARK INTER:                 -10.859
REMARK INTRA:                  -0.759
REMARK UNBOUND:                -0.759
REMARK  Name = ligands_pdb/TRN_CHEMBL52672.pdb
REMARK  4 active torsions:
REMARK  status: ('A' for Active; 'I' for Inactive)
REMARK    1  A    between atoms: C4_4  and  C5_5
REMARK    2  A    between atoms: C13_15  and  O1_16
REMARK    3  A    between atoms: O1_16  and  C14_17
REMARK    4  A    between atoms: C14_17  and  C15_18
REMARK                            x       y       z     vdW  Elec       q    Type
REMARK                         _______ _______ _______ _____ _____    ______ ____
ROOT
ATOM      1  C5  T22     1     143.904  96.570 136.256  0.00  0.00    +0.185 A 
ATOM      2  N1  T22     1     145.176  96.041 136.102  0.00  0.00    -0.127 NA
ATOM      3  N2  T22     1     145.443  95.972 134.816  0.00  0.00    -0.127 NA
ATOM      4  C6  T22     1     144.340  96.463 134.207  0.00  0.00    +0.186 A 
ATOM      5  C7  T22     1     144.147  96.615 132.819  0.00  0.00    +0.033 A 
ATOM      6  C8  T22     1     145.128  96.226 131.885  0.00  0.00    +0.012 A 
ATOM      7  C9  T22     1     144.895  96.396 130.511  0.00  0.00    +0.001 A 
ATOM      8  C10 T22     1     143.686  96.953 130.065  0.00  0.00    +0.001 A 
ATOM      9  C11 T22     1     142.704  97.345 130.992  0.00  0.00    +0.014 A 
ATOM     10  C12 T22     1     142.926  97.181 132.375  0.00  0.00    +0.049 A 
ATOM     11  C13 T22     1     141.956  97.575 133.333  0.00  0.00    +0.241 A 
ATOM     12  N4  T22     1     142.169  97.417 134.660  0.00  0.00    -0.125 NA
ATOM     13  N5  T22     1     143.338  96.856 135.040  0.00  0.00    -0.189 N 
ENDROOT
BRANCH   1  17
ATOM     14  C1  T22     1     142.175  97.216 140.135  0.00  0.00    +0.000 A 
ATOM     15  C2  T22     1     143.096  98.135 139.610  0.00  0.00    +0.001 A 
ATOM     16  C3  T22     1     143.660  97.918 138.341  0.00  0.00    +0.011 A 
ATOM     17  C4  T22     1     143.305  96.785 137.580  0.00  0.00    +0.021 A 
ATOM     18  C20 T22     1     142.383  95.865 138.123  0.00  0.00    +0.011 A 
ATOM     19  C21 T22     1     141.822  96.080 139.392  0.00  0.00    +0.001 A 
ENDBRANCH   1  17
BRANCH  11  20
ATOM     20  O1  T22     1     140.772  98.135 132.893  0.00  0.00    -0.470 OA
BRANCH  20  21
ATOM     21  C14 T22     1     140.636  99.546 132.643  0.00  0.00    +0.266 C 
BRANCH  21  22
ATOM     22  C15 T22     1     140.366  99.752 131.163  0.00  0.00    -0.007 A 
ATOM     23  C16 T22     1     140.985 100.795 130.453  0.00  0.00    +0.026 A 
ATOM     24  C17 T22     1     140.701 100.950 129.085  0.00  0.00    +0.111 A 
ATOM     25  N3  T22     1     139.857 100.137 128.416  0.00  0.00    -0.263 NA
ATOM     26  C18 T22     1     139.259  99.140 129.096  0.00  0.00    +0.111 A 
ATOM     27  C19 T22     1     139.483  98.909 130.466  0.00  0.00    +0.026 A 
ENDBRANCH  21  22
ENDBRANCH  20  21
ENDBRANCH  11  20
TORSDOF 4
ENDMDL
MODEL 2
REMARK VINA RESULT:    -8.610      2.465      7.257
REMARK INTER + INTRA:         -11.381
REMARK INTER:                 -10.591
REMARK INTRA:                  -0.790
REMARK UNBOUND:                -0.759
REMARK  Name = ligands_pdb/TRN_CHEMBL52672.pdb
REMARK  4 active torsions:
REMARK  status: ('A' for Active; 'I' for Inactive)
REMARK    1  A    between atoms: C4_4  and  C5_5
REMARK    2  A    between atoms: C13_15  and  O1_16
REMARK    3  A    between atoms: O1_16  and  C14_17
REMARK    4  A    between atoms: C14_17  and  C15_18
REMARK                            x       y       z     vdW  Elec       q    Type
REMARK                         _______ _______ _______ _____ _____    ______ ____
ROOT
ATOM      1  C5  T22     1     144.996  96.432 131.505  0.00  0.00    +0.185 A 
ATOM      2  N1  T22     1     144.873  97.334 130.459  0.00  0.00    -0.127 NA
ATOM      3  N2  T22     1     143.910  98.180 130.752  0.00  0.00    -0.127 NA
ATOM      4  C6  T22     1     143.467  97.790 131.969  0.00  0.00    +0.186 A 
ATOM      5  C7  T22     1     142.445  98.403 132.722  0.00  0.00    +0.033 A 
ATOM      6  C8  T22     1     141.736  99.523 132.243  0.00  0.00    +0.012 A 
ATOM      7  C9  T22     1     140.725 100.102 133.027  0.00  0.00    +0.001 A 
ATOM      8  C10 T22     1     140.420  99.567 134.289  0.00  0.00    +0.001 A 
ATOM      9  C11 T22     1     141.124  98.452 134.773  0.00  0.00    +0.014 A 
ATOM     10  C12 T22     1     142.141  97.861 133.997  0.00  0.00    +0.049 A 
ATOM     11  C13 T22     1     142.875  96.739 134.464  0.00  0.00    +0.241 A 
ATOM     12  N4  T22     1     143.851  96.172 133.718  0.00  0.00    -0.125 NA
ATOM     13  N5  T22     1     144.094  96.707 132.501  0.00  0.00    -0.189 N 
ENDROOT
BRANCH   1  17
ATOM     14  C1  T22     1     147.931  93.296 131.478  0.00  0.00    +0.000 A 
ATOM     15  C2  T22     1     148.019  94.339 132.413  0.00  0.00    +0.001 A 
ATOM     16  C3  T22     1     147.057  95.362 132.417  0.00  0.00    +0.011 A 
ATOM     17  C4  T22     1     145.993  95.354 131.491  0.00  0.00    +0.021 A 
ATOM     18  C20 T22     1     145.920  94.304 130.551  0.00  0.00    +0.011 A 
ATOM     19  C21 T22     1     146.883  93.281 130.546  0.00  0.00    +0.001 A 
ENDBRANCH   1  17
BRANCH  11  20
ATOM     20  O1  T22     1     142.581  96.222 135.711  0.00  0.00    -0.470 OA
BRANCH  20  21
ATOM     21  C14 T22     1     143.597  95.988 136.704  0.00  0.00    +0.266 C 
BRANCH  21  22
ATOM     22  C15 T22     1     143.147  96.610 138.014  0.00  0.00    -0.007 A 
ATOM     23  C16 T22     1     143.700  97.820 138.467  0.00  0.00    +0.026 A 
ATOM     24  C17 T22     1     143.255  98.356 139.689  0.00  0.00    +0.111 A 
ATOM     25  N3  T22     1     142.316  97.758 140.451  0.00  0.00    -0.263 NA
ATOM     26  C18 T22     1     141.789  96.596 140.020  0.00  0.00    +0.111 A 
ATOM     27  C19 T22     1     142.173  95.986 138.813  0.00  0.00    +0.026 A 
ENDBRANCH  21  22
ENDBRANCH  20  21
ENDBRANCH  11  20
TORSDOF 4
ENDMDL
MODEL 3
REMARK VINA RESULT:    -8.052      2.179      7.327
REMARK INTER + INTRA:         -10.693
REMARK INTER:                  -9.951
REMARK INTRA:                  -0.742
REMARK UNBOUND:                -0.759
REMARK  Name = ligands_pdb/TRN_CHEMBL52672.pdb
REMARK  4 active torsions:
REMARK  status: ('A' for Active; 'I' for Inactive)
REMARK    1  A    between atoms: C4_4  and  C5_5
REMARK    2  A    between atoms: C13_15  and  O1_16
REMARK    3  A    between atoms: O1_16  and  C14_17
REMARK    4  A    between atoms: C14_17  and  C15_18
REMARK                            x       y       z     vdW  Elec       q    Type
REMARK                         _______ _______ _______ _____ _____    ______ ____
ROOT
ATOM      1  C5  T22     1     142.657  98.342 130.496  0.00  0.00    +0.185 A 
ATOM      2  N1  T22     1     143.400  97.804 129.456  0.00  0.00    -0.127 NA
ATOM      3  N2  T22     1     144.406  97.129 129.969  0.00  0.00    -0.127 NA
ATOM      4  C6  T22     1     144.258  97.257 131.308  0.00  0.00    +0.186 A 
ATOM      5  C7  T22     1     145.086  96.690 132.298  0.00  0.00    +0.033 A 
ATOM      6  C8  T22     1     146.216  95.915 131.970  0.00  0.00    +0.012 A 
ATOM      7  C9  T22     1     147.012  95.368 132.989  0.00  0.00    +0.001 A 
ATOM      8  C10 T22     1     146.683  95.590 134.335  0.00  0.00    +0.001 A 
ATOM      9  C11 T22     1     145.556  96.360 134.670  0.00  0.00    +0.014 A 
ATOM     10  C12 T22     1     144.748  96.915 133.657  0.00  0.00    +0.049 A 
ATOM     11  C13 T22     1     143.599  97.689 133.965  0.00  0.00    +0.241 A 
ATOM     12  N4  T22     1     142.824  98.222 132.992  0.00  0.00    -0.125 NA
ATOM     13  N5  T22     1     143.192  97.999 131.711  0.00  0.00    -0.189 N 
ENDROOT
BRANCH   1  17
ATOM     14  C1  T22     1     139.128 100.685 129.786  0.00  0.00    +0.000 A 
ATOM     15  C2  T22     1     139.041  99.288 129.885  0.00  0.00    +0.001 A 
ATOM     16  C3  T22     1     140.198  98.526 130.116  0.00  0.00    +0.011 A 
ATOM     17  C4  T22     1     141.455  99.151 130.257  0.00  0.00    +0.021 A 
ATOM     18  C20 T22     1     141.530 100.556 130.148  0.00  0.00    +0.011 A 
ATOM     19  C21 T22     1     140.374 101.317 129.915  0.00  0.00    +0.001 A 
ENDBRANCH   1  17
BRANCH  11  20
ATOM     20  O1  T22     1     143.270  97.897 135.291  0.00  0.00    -0.470 OA
BRANCH  20  21
ATOM     21  C14 T22     1     142.370  97.029 136.004  0.00  0.00    +0.266 C 
BRANCH  21  22
ATOM     22  C15 T22     1     142.672  97.131 137.488  0.00  0.00    -0.007 A 
ATOM     23  C16 T22     1     143.801  97.828 137.950  0.00  0.00    +0.026 A 
ATOM     24  C17 T22     1     144.043  97.894 139.333  0.00  0.00    +0.111 A 
ATOM     25  N3  T22     1     143.235  97.314 140.245  0.00  0.00    -0.263 NA
ATOM     26  C18 T22     1     142.155  96.641 139.804  0.00  0.00    +0.111 A 
ATOM     27  C19 T22     1     141.834  96.523 138.439  0.00  0.00    +0.026 A 
ENDBRANCH  21  22
ENDBRANCH  20  21
ENDBRANCH  11  20
TORSDOF 4
ENDMDL
MODEL 4
REMARK VINA RESULT:    -7.777      2.448      5.396
REMARK INTER + INTRA:         -10.354
REMARK INTER:                  -9.552
REMARK INTRA:                  -0.802
REMARK UNBOUND:                -0.759
REMARK  Name = ligands_pdb/TRN_CHEMBL52672.pdb
REMARK  4 active torsions:
REMARK  status: ('A' for Active; 'I' for Inactive)
REMARK    1  A    between atoms: C4_4  and  C5_5
REMARK    2  A    between atoms: C13_15  and  O1_16
REMARK    3  A    between atoms: O1_16  and  C14_17
REMARK    4  A    between atoms: C14_17  and  C15_18
REMARK                            x       y       z     vdW  Elec       q    Type
REMARK                         _______ _______ _______ _____ _____    ______ ____
ROOT
ATOM      1  C5  T22     1     142.250  97.570 136.052  0.00  0.00    +0.185 A 
ATOM      2  N1  T22     1     140.997  97.945 135.591  0.00  0.00    -0.127 NA
ATOM      3  N2  T22     1     141.051  98.049 134.281  0.00  0.00    -0.127 NA
ATOM      4  C6  T22     1     142.327  97.731 133.962  0.00  0.00    +0.186 A 
ATOM      5  C7  T22     1     142.876  97.679 132.665  0.00  0.00    +0.033 A 
ATOM      6  C8  T22     1     142.116  97.992 131.521  0.00  0.00    +0.012 A 
ATOM      7  C9  T22     1     142.704  97.926 130.248  0.00  0.00    +0.001 A 
ATOM      8  C10 T22     1     144.049  97.548 130.112  0.00  0.00    +0.001 A 
ATOM      9  C11 T22     1     144.812  97.231 131.248  0.00  0.00    +0.014 A 
ATOM     10  C12 T22     1     144.235  97.293 132.533  0.00  0.00    +0.049 A 
ATOM     11  C13 T22     1     144.979  96.970 133.697  0.00  0.00    +0.241 A 
ATOM     12  N4  T22     1     144.424  97.031 134.930  0.00  0.00    -0.125 NA
ATOM     13  N5  T22     1     143.133  97.422 135.013  0.00  0.00    -0.189 N 
ENDROOT
BRANCH   1  17
ATOM     14  C1  T22     1     143.079  96.965 140.223  0.00  0.00    +0.000 A 
ATOM     15  C2  T22     1     143.940  97.747 139.437  0.00  0.00    +0.001 A 
ATOM     16  C3  T22     1     143.665  97.940 138.074  0.00  0.00    +0.011 A 
ATOM     17  C4  T22     1     142.524  97.361 137.480  0.00  0.00    +0.021 A 
ATOM     18  C20 T22     1     141.671  96.571 138.279  0.00  0.00    +0.011 A 
ATOM     19  C21 T22     1     141.946  96.376 139.642  0.00  0.00    +0.001 A 
ENDBRANCH   1  17
BRANCH  11  20
ATOM     20  O1  T22     1     146.299  96.586 133.561  0.00  0.00    -0.470 OA
BRANCH  20  21
ATOM     21  C14 T22     1     146.699  95.203 133.553  0.00  0.00    +0.266 C 
BRANCH  21  22
ATOM     22  C15 T22     1     147.459  94.925 132.268  0.00  0.00    -0.007 A 
ATOM     23  C16 T22     1     147.019  93.943 131.366  0.00  0.00    +0.026 A 
ATOM     24  C17 T22     1     147.757  93.718 130.191  0.00  0.00    +0.111 A 
ATOM     25  N3  T22     1     148.877  94.405 129.887  0.00  0.00    -0.263 NA
ATOM     26  C18 T22     1     149.303  95.344 130.755  0.00  0.00    +0.111 A 
ATOM     27  C19 T22     1     148.630  95.638 131.953  0.00  0.00    +0.026 A 
ENDBRANCH  21  22
ENDBRANCH  20  21
ENDBRANCH  11  20
TORSDOF 4
ENDMDL
MODEL 5
REMARK VINA RESULT:    -7.749      2.583      5.118
REMARK INTER + INTRA:         -10.319
REMARK INTER:                  -9.644
REMARK INTRA:                  -0.675
REMARK UNBOUND:                -0.759
REMARK  Name = ligands_pdb/TRN_CHEMBL52672.pdb
REMARK  4 active torsions:
REMARK  status: ('A' for Active; 'I' for Inactive)
REMARK    1  A    between atoms: C4_4  and  C5_5
REMARK    2  A    between atoms: C13_15  and  O1_16
REMARK    3  A    between atoms: O1_16  and  C14_17
REMARK    4  A    between atoms: C14_17  and  C15_18
REMARK                            x       y       z     vdW  Elec       q    Type
REMARK                         _______ _______ _______ _____ _____    ______ ____
ROOT
ATOM      1  C5  T22     1     141.632  98.728 133.692  0.00  0.00    +0.185 A 
ATOM      2  N1  T22     1     141.110  99.974 134.002  0.00  0.00    -0.127 NA
ATOM      3  N2  T22     1     140.467 100.429 132.949  0.00  0.00    -0.127 NA
ATOM      4  C6  T22     1     140.598  99.456 132.018  0.00  0.00    +0.186 A 
ATOM      5  C7  T22     1     140.061  99.467 130.715  0.00  0.00    +0.033 A 
ATOM      6  C8  T22     1     139.316 100.559 130.226  0.00  0.00    +0.012 A 
ATOM      7  C9  T22     1     138.798 100.527 128.921  0.00  0.00    +0.001 A 
ATOM      8  C10 T22     1     139.020  99.408 128.103  0.00  0.00    +0.001 A 
ATOM      9  C11 T22     1     139.758  98.315 128.585  0.00  0.00    +0.014 A 
ATOM     10  C12 T22     1     140.284  98.333 129.894  0.00  0.00    +0.049 A 
ATOM     11  C13 T22     1     141.027  97.240 130.410  0.00  0.00    +0.241 A 
ATOM     12  N4  T22     1     141.532  97.259 131.666  0.00  0.00    -0.125 NA
ATOM     13  N5  T22     1     141.312  98.366 132.408  0.00  0.00    -0.189 N 
ENDROOT
BRANCH   1  17
ATOM     14  C1  T22     1     143.875  96.443 136.555  0.00  0.00    +0.000 A 
ATOM     15  C2  T22     1     142.548  96.808 136.825  0.00  0.00    +0.001 A 
ATOM     16  C3  T22     1     141.819  97.556 135.887  0.00  0.00    +0.011 A 
ATOM     17  C4  T22     1     142.405  97.944 134.663  0.00  0.00    +0.021 A 
ATOM     18  C20 T22     1     143.743  97.576 134.406  0.00  0.00    +0.011 A 
ATOM     19  C21 T22     1     144.473  96.830 135.346  0.00  0.00    +0.001 A 
ENDBRANCH   1  17
BRANCH  11  20
ATOM     20  O1  T22     1     141.233  96.134 129.608  0.00  0.00    -0.470 OA
BRANCH  20  21
ATOM     21  C14 T22     1     142.206  96.126 128.547  0.00  0.00    +0.266 C 
BRANCH  21  22
ATOM     22  C15 T22     1     143.514  96.680 129.084  0.00  0.00    -0.007 A 
ATOM     23  C16 T22     1     144.306  95.931 129.971  0.00  0.00    +0.026 A 
ATOM     24  C17 T22     1     145.508  96.486 130.445  0.00  0.00    +0.111 A 
ATOM     25  N3  T22     1     145.939  97.713 130.087  0.00  0.00    -0.263 NA
ATOM     26  C18 T22     1     145.178  98.434 129.241  0.00  0.00    +0.111 A 
ATOM     27  C19 T22     1     143.962  97.960 128.716  0.00  0.00    +0.026 A 
ENDBRANCH  21  22
ENDBRANCH  20  21
ENDBRANCH  11  20
TORSDOF 4
ENDMDL
MODEL 6
REMARK VINA RESULT:    -7.674      1.768      2.784
REMARK INTER + INTRA:         -10.227
REMARK INTER:                  -9.186
REMARK INTRA:                  -1.041
REMARK UNBOUND:                -0.759
REMARK  Name = ligands_pdb/TRN_CHEMBL52672.pdb
REMARK  4 active torsions:
REMARK  status: ('A' for Active; 'I' for Inactive)
REMARK    1  A    between atoms: C4_4  and  C5_5
REMARK    2  A    between atoms: C13_15  and  O1_16
REMARK    3  A    between atoms: O1_16  and  C14_17
REMARK    4  A    between atoms: C14_17  and  C15_18
REMARK                            x       y       z     vdW  Elec       q    Type
REMARK                         _______ _______ _______ _____ _____    ______ ____
ROOT
ATOM      1  C5  T22     1     144.009  96.751 133.471  0.00  0.00    +0.185 A 
ATOM      2  N1  T22     1     145.368  96.867 133.224  0.00  0.00    -0.127 NA
ATOM      3  N2  T22     1     145.562  96.792 131.926  0.00  0.00    -0.127 NA
ATOM      4  C6  T22     1     144.325  96.641 131.400  0.00  0.00    +0.186 A 
ATOM      5  C7  T22     1     144.005  96.534 130.032  0.00  0.00    +0.033 A 
ATOM      6  C8  T22     1     144.997  96.552 129.031  0.00  0.00    +0.012 A 
ATOM      7  C9  T22     1     144.633  96.443 127.679  0.00  0.00    +0.001 A 
ATOM      8  C10 T22     1     143.281  96.317 127.322  0.00  0.00    +0.001 A 
ATOM      9  C11 T22     1     142.286  96.300 128.314  0.00  0.00    +0.014 A 
ATOM     10  C12 T22     1     142.638  96.409 129.676  0.00  0.00    +0.049 A 
ATOM     11  C13 T22     1     141.654  96.404 130.699  0.00  0.00    +0.241 A 
ATOM     12  N4  T22     1     141.992  96.508 132.005  0.00  0.00    -0.125 NA
ATOM     13  N5  T22     1     143.307  96.605 132.302  0.00  0.00    -0.189 N 
ENDROOT
BRANCH   1  17
ATOM     14  C1  T22     1     142.409  96.873 137.455  0.00  0.00    +0.000 A 
ATOM     15  C2  T22     1     143.555  96.114 137.176  0.00  0.00    +0.001 A 
ATOM     16  C3  T22     1     144.074  96.076 135.872  0.00  0.00    +0.011 A 
ATOM     17  C4  T22     1     143.457  96.801 134.831  0.00  0.00    +0.021 A 
ATOM     18  C20 T22     1     142.301  97.555 135.123  0.00  0.00    +0.011 A 
ATOM     19  C21 T22     1     141.781  97.591 136.427  0.00  0.00    +0.001 A 
ENDBRANCH   1  17
BRANCH  11  20
ATOM     20  O1  T22     1     140.323  96.293 130.345  0.00  0.00    -0.470 OA
BRANCH  20  21
ATOM     21  C14 T22     1     139.347  97.286 130.707  0.00  0.00    +0.266 C 
BRANCH  21  22
ATOM     22  C15 T22     1     139.640  98.560 129.934  0.00  0.00    -0.007 A 
ATOM     23  C16 T22     1     139.397  98.639 128.552  0.00  0.00    +0.026 A 
ATOM     24  C17 T22     1     139.688  99.837 127.877  0.00  0.00    +0.111 A 
ATOM     25  N3  T22     1     140.194 100.923 128.499  0.00  0.00    -0.263 NA
ATOM     26  C18 T22     1     140.432 100.846 129.822  0.00  0.00    +0.111 A 
ATOM     27  C19 T22     1     140.172  99.690 130.579  0.00  0.00    +0.026 A 
ENDBRANCH  21  22
ENDBRANCH  20  21
ENDBRANCH  11  20
TORSDOF 4
ENDMDL
MODEL 7
REMARK VINA RESULT:    -7.629      2.158      4.459
REMARK INTER + INTRA:         -10.171
REMARK INTER:                  -9.301
REMARK INTRA:                  -0.870
REMARK UNBOUND:                -0.759
REMARK  Name = ligands_pdb/TRN_CHEMBL52672.pdb
REMARK  4 active torsions:
REMARK  status: ('A' for Active; 'I' for Inactive)
REMARK    1  A    between atoms: C4_4  and  C5_5
REMARK    2  A    between atoms: C13_15  and  O1_16
REMARK    3  A    between atoms: O1_16  and  C14_17
REMARK    4  A    between atoms: C14_17  and  C15_18
REMARK                            x       y       z     vdW  Elec       q    Type
REMARK                         _______ _______ _______ _____ _____    ______ ____
ROOT
ATOM      1  C5  T22     1     141.809  97.970 135.064  0.00  0.00    +0.185 A 
ATOM      2  N1  T22     1     140.507  98.444 135.125  0.00  0.00    -0.127 NA
ATOM      3  N2  T22     1     140.230  99.042 133.987  0.00  0.00    -0.127 NA
ATOM      4  C6  T22     1     141.357  98.919 133.249  0.00  0.00    +0.186 A 
ATOM      5  C7  T22     1     141.551  99.387 131.933  0.00  0.00    +0.033 A 
ATOM      6  C8  T22     1     140.544 100.083 131.235  0.00  0.00    +0.012 A 
ATOM      7  C9  T22     1     140.780 100.531 129.925  0.00  0.00    +0.001 A 
ATOM      8  C10 T22     1     142.017 100.285 129.309  0.00  0.00    +0.001 A 
ATOM      9  C11 T22     1     143.024  99.588 129.998  0.00  0.00    +0.014 A 
ATOM     10  C12 T22     1     142.801  99.133 131.314  0.00  0.00    +0.049 A 
ATOM     11  C13 T22     1     143.797  98.420 132.032  0.00  0.00    +0.241 A 
ATOM     12  N4  T22     1     143.582  97.984 133.294  0.00  0.00    -0.125 NA
ATOM     13  N5  T22     1     142.384  98.264 133.854  0.00  0.00    -0.189 N 
ENDROOT
BRANCH   1  17
ATOM     14  C1  T22     1     143.624  95.825 138.313  0.00  0.00    +0.000 A 
ATOM     15  C2  T22     1     144.138  95.707 137.012  0.00  0.00    +0.001 A 
ATOM     16  C3  T22     1     143.540  96.409 135.953  0.00  0.00    +0.011 A 
ATOM     17  C4  T22     1     142.425  97.243 136.181  0.00  0.00    +0.021 A 
ATOM     18  C20 T22     1     141.914  97.349 137.492  0.00  0.00    +0.011 A 
ATOM     19  C21 T22     1     142.511  96.645 138.551  0.00  0.00    +0.001 A 
ENDBRANCH   1  17
BRANCH  11  20
ATOM     20  O1  T22     1     145.009  98.168 131.419  0.00  0.00    -0.470 OA
BRANCH  20  21
ATOM     21  C14 T22     1     145.535  96.836 131.278  0.00  0.00    +0.266 C 
BRANCH  21  22
ATOM     22  C15 T22     1     144.605  96.039 130.380  0.00  0.00    -0.007 A 
ATOM     23  C16 T22     1     143.813  95.000 130.898  0.00  0.00    +0.026 A 
ATOM     24  C17 T22     1     142.970  94.288 130.028  0.00  0.00    +0.111 A 
ATOM     25  N3  T22     1     142.884  94.557 128.709  0.00  0.00    -0.263 NA
ATOM     26  C18 T22     1     143.646  95.549 128.210  0.00  0.00    +0.111 A 
ATOM     27  C19 T22     1     144.518  96.315 129.004  0.00  0.00    +0.026 A 
ENDBRANCH  21  22
ENDBRANCH  20  21
ENDBRANCH  11  20
TORSDOF 4
ENDMDL
MODEL 8
REMARK VINA RESULT:    -7.611      1.429      5.639
REMARK INTER + INTRA:         -10.149
REMARK INTER:                  -9.332
REMARK INTRA:                  -0.817
REMARK UNBOUND:                -0.759
REMARK  Name = ligands_pdb/TRN_CHEMBL52672.pdb
REMARK  4 active torsions:
REMARK  status: ('A' for Active; 'I' for Inactive)
REMARK    1  A    between atoms: C4_4  and  C5_5
REMARK    2  A    between atoms: C13_15  and  O1_16
REMARK    3  A    between atoms: O1_16  and  C14_17
REMARK    4  A    between atoms: C14_17  and  C15_18
REMARK                            x       y       z     vdW  Elec       q    Type
REMARK                         _______ _______ _______ _____ _____    ______ ____
ROOT
ATOM      1  C5  T22     1     145.292  96.467 132.562  0.00  0.00    +0.185 A 
ATOM      2  N1  T22     1     146.308  95.938 133.343  0.00  0.00    -0.127 NA
ATOM      3  N2  T22     1     145.920  95.958 134.599  0.00  0.00    -0.127 NA
ATOM      4  C6  T22     1     144.676  96.489 134.567  0.00  0.00    +0.186 A 
ATOM      5  C7  T22     1     143.829  96.700 135.673  0.00  0.00    +0.033 A 
ATOM      6  C8  T22     1     144.226  96.383 136.987  0.00  0.00    +0.012 A 
ATOM      7  C9  T22     1     143.349  96.609 138.060  0.00  0.00    +0.001 A 
ATOM      8  C10 T22     1     142.075  97.150 137.826  0.00  0.00    +0.001 A 
ATOM      9  C11 T22     1     141.671  97.466 136.518  0.00  0.00    +0.014 A 
ATOM     10  C12 T22     1     142.542  97.244 135.431  0.00  0.00    +0.049 A 
ATOM     11  C13 T22     1     142.157  97.546 134.099  0.00  0.00    +0.241 A 
ATOM     12  N4  T22     1     142.994  97.333 133.057  0.00  0.00    -0.125 NA
ATOM     13  N5  T22     1     144.218  96.832 133.333  0.00  0.00    -0.189 N 
ENDROOT
BRANCH   1  17
ATOM     14  C1  T22     1     145.653  96.775 128.293  0.00  0.00    +0.000 A 
ATOM     15  C2  T22     1     145.912  95.556 128.939  0.00  0.00    +0.001 A 
ATOM     16  C3  T22     1     145.794  95.461 130.335  0.00  0.00    +0.011 A 
ATOM     17  C4  T22     1     145.409  96.581 131.103  0.00  0.00    +0.021 A 
ATOM     18  C20 T22     1     145.158  97.802 130.442  0.00  0.00    +0.011 A 
ATOM     19  C21 T22     1     145.278  97.897 129.046  0.00  0.00    +0.001 A 
ENDBRANCH   1  17
BRANCH  11  20
ATOM     20  O1  T22     1     140.899  98.067 133.869  0.00  0.00    -0.470 OA
BRANCH  20  21
ATOM     21  C14 T22     1     140.701  99.382 133.318  0.00  0.00    +0.266 C 
BRANCH  21  22
ATOM     22  C15 T22     1     140.744  99.284 131.803  0.00  0.00    -0.007 A 
ATOM     23  C16 T22     1     139.871  98.429 131.108  0.00  0.00    +0.026 A 
ATOM     24  C17 T22     1     139.950  98.369 129.706  0.00  0.00    +0.111 A 
ATOM     25  N3  T22     1     140.830  99.099 128.990  0.00  0.00    -0.263 NA
ATOM     26  C18 T22     1     141.670  99.916 129.655  0.00  0.00    +0.111 A 
ATOM     27  C19 T22     1     141.663 100.041 131.056  0.00  0.00    +0.026 A 
ENDBRANCH  21  22
ENDBRANCH  20  21
ENDBRANCH  11  20
TORSDOF 4
ENDMDL
MODEL 9
REMARK VINA RESULT:    -7.569      2.320      6.590
REMARK INTER + INTRA:         -10.097
REMARK INTER:                  -9.421
REMARK INTRA:                  -0.676
REMARK UNBOUND:                -0.759
REMARK  Name = ligands_pdb/TRN_CHEMBL52672.pdb
REMARK  4 active torsions:
REMARK  status: ('A' for Active; 'I' for Inactive)
REMARK    1  A    between atoms: C4_4  and  C5_5
REMARK    2  A    between atoms: C13_15  and  O1_16
REMARK    3  A    between atoms: O1_16  and  C14_17
REMARK    4  A    between atoms: C14_17  and  C15_18
REMARK                            x       y       z     vdW  Elec       q    Type
REMARK                         _______ _______ _______ _____ _____    ______ ____
ROOT
ATOM      1  C5  T22     1     141.245  99.273 132.507  0.00  0.00    +0.185 A 
ATOM      2  N1  T22     1     140.219  99.491 133.413  0.00  0.00    -0.127 NA
ATOM      3  N2  T22     1     140.523  98.882 134.539  0.00  0.00    -0.127 NA
ATOM      4  C6  T22     1     141.728  98.311 134.307  0.00  0.00    +0.186 A 
ATOM      5  C7  T22     1     142.486  97.558 135.225  0.00  0.00    +0.033 A 
ATOM      6  C8  T22     1     142.028  97.295 136.532  0.00  0.00    +0.012 A 
ATOM      7  C9  T22     1     142.817  96.540 137.414  0.00  0.00    +0.001 A 
ATOM      8  C10 T22     1     144.064  96.047 136.998  0.00  0.00    +0.001 A 
ATOM      9  C11 T22     1     144.529  96.307 135.697  0.00  0.00    +0.014 A 
ATOM     10  C12 T22     1     143.746  97.064 134.801  0.00  0.00    +0.049 A 
ATOM     11  C13 T22     1     144.194  97.350 133.485  0.00  0.00    +0.241 A 
ATOM     12  N4  T22     1     143.442  98.076 132.625  0.00  0.00    -0.125 NA
ATOM     13  N5  T22     1     142.240  98.511 133.063  0.00  0.00    -0.189 N 
ENDROOT
BRANCH   1  17
ATOM     14  C1  T22     1     141.127 100.906 128.536  0.00  0.00    +0.000 A 
ATOM     15  C2  T22     1     140.197 101.324 129.500  0.00  0.00    +0.001 A 
ATOM     16  C3  T22     1     140.240 100.786 130.797  0.00  0.00    +0.011 A 
ATOM     17  C4  T22     1     141.214  99.829 131.148  0.00  0.00    +0.021 A 
ATOM     18  C20 T22     1     142.138  99.411 130.167  0.00  0.00    +0.011 A 
ATOM     19  C21 T22     1     142.095  99.947 128.869  0.00  0.00    +0.001 A 
ENDBRANCH   1  17
BRANCH  11  20
ATOM     20  O1  T22     1     145.426  96.875 133.081  0.00  0.00    -0.470 OA
BRANCH  20  21
ATOM     21  C14 T22     1     145.562  95.779 132.158  0.00  0.00    +0.266 C 
BRANCH  21  22
ATOM     22  C15 T22     1     145.181  96.264 130.770  0.00  0.00    -0.007 A 
ATOM     23  C16 T22     1     145.907  97.287 130.137  0.00  0.00    +0.026 A 
ATOM     24  C17 T22     1     145.515  97.706 128.854  0.00  0.00    +0.111 A 
ATOM     25  N3  T22     1     144.467  97.168 128.196  0.00  0.00    -0.263 NA
ATOM     26  C18 T22     1     143.768  96.190 128.804  0.00  0.00    +0.111 A 
ATOM     27  C19 T22     1     144.086  95.707 130.085  0.00  0.00    +0.026 A 
ENDBRANCH  21  22
ENDBRANCH  20  21
ENDBRANCH  11  20
TORSDOF 4
ENDMDL
MODEL 10
REMARK VINA RESULT:    -7.479      3.237      9.034
REMARK INTER + INTRA:          -9.986
REMARK INTER:                  -8.908
REMARK INTRA:                  -1.079
REMARK UNBOUND:                -0.759
REMARK  Name = ligands_pdb/TRN_CHEMBL52672.pdb
REMARK  4 active torsions:
REMARK  status: ('A' for Active; 'I' for Inactive)
REMARK    1  A    between atoms: C4_4  and  C5_5
REMARK    2  A    between atoms: C13_15  and  O1_16
REMARK    3  A    between atoms: O1_16  and  C14_17
REMARK    4  A    between atoms: C14_17  and  C15_18
REMARK                            x       y       z     vdW  Elec       q    Type
REMARK                         _______ _______ _______ _____ _____    ______ ____
ROOT
ATOM      1  C5  T22     1     139.544  97.740 126.871  0.00  0.00    +0.185 A 
ATOM      2  N1  T22     1     139.436  99.074 126.508  0.00  0.00    -0.127 NA
ATOM      3  N2  T22     1     139.626  99.812 127.580  0.00  0.00    -0.127 NA
ATOM      4  C6  T22     1     139.854  98.924 128.574  0.00  0.00    +0.186 A 
ATOM      5  C7  T22     1     140.134  99.231 129.921  0.00  0.00    +0.033 A 
ATOM      6  C8  T22     1     140.181 100.559 130.388  0.00  0.00    +0.012 A 
ATOM      7  C9  T22     1     140.464 100.819 131.739  0.00  0.00    +0.001 A 
ATOM      8  C10 T22     1     140.701  99.757 132.626  0.00  0.00    +0.001 A 
ATOM      9  C11 T22     1     140.658  98.430 132.166  0.00  0.00    +0.014 A 
ATOM     10  C12 T22     1     140.375  98.154 130.813  0.00  0.00    +0.049 A 
ATOM     11  C13 T22     1     140.333  96.824 130.319  0.00  0.00    +0.241 A 
ATOM     12  N4  T22     1     140.061  96.561 129.020  0.00  0.00    -0.125 NA
ATOM     13  N5  T22     1     139.819  97.614 128.209  0.00  0.00    -0.189 N 
ENDROOT
BRANCH   1  17
ATOM     14  C1  T22     1     139.108  94.575 124.000  0.00  0.00    +0.000 A 
ATOM     15  C2  T22     1     140.163  95.494 123.885  0.00  0.00    +0.001 A 
ATOM     16  C3  T22     1     140.300  96.527 124.826  0.00  0.00    +0.011 A 
ATOM     17  C4  T22     1     139.390  96.653 125.896  0.00  0.00    +0.021 A 
ATOM     18  C20 T22     1     138.330  95.727 125.996  0.00  0.00    +0.011 A 
ATOM     19  C21 T22     1     138.191  94.694 125.054  0.00  0.00    +0.001 A 
ENDBRANCH   1  17
BRANCH  11  20
ATOM     20  O1  T22     1     140.579  95.781 131.190  0.00  0.00    -0.470 OA
BRANCH  20  21
ATOM     21  C14 T22     1     141.745  94.944 131.077  0.00  0.00    +0.266 C 
BRANCH  21  22
ATOM     22  C15 T22     1     142.946  95.713 131.599  0.00  0.00    -0.007 A 
ATOM     23  C16 T22     1     143.089  95.987 132.970  0.00  0.00    +0.026 A 
ATOM     24  C17 T22     1     144.215  96.706 133.408  0.00  0.00    +0.111 A 
ATOM     25  N3  T22     1     145.172  97.148 132.566  0.00  0.00    -0.263 NA
ATOM     26  C18 T22     1     145.034  96.891 131.251  0.00  0.00    +0.111 A 
ATOM     27  C19 T22     1     143.941  96.180 130.723  0.00  0.00    +0.026 A 
ENDBRANCH  21  22
ENDBRANCH  20  21
ENDBRANCH  11  20
TORSDOF 4
ENDMDL
