MODEL 1
REMARK VINA RESULT:    -8.723      0.000      0.000
REMARK INTER + INTRA:         -12.342
REMARK INTER:                 -10.763
REMARK INTRA:                  -1.580
REMARK UNBOUND:                -1.580
REMARK  Name = ligands_pdb/TRN_CHEMBL122619.pdb
REMARK  7 active torsions:
REMARK  status: ('A' for Active; 'I' for Inactive)
REMARK    1  A    between atoms: C1_1  and  C2_2
REMARK    2  A    between atoms: C3_5  and  C4_6
REMARK    3  A    between atoms: C8_12  and  O2_13
REMARK    4  A    between atoms: O2_13  and  C9_14
REMARK    5  A    between atoms: C9_14  and  C10_15
REMARK    6  A    between atoms: C13_18  and  C14_19
REMARK    7  A    between atoms: C15_20  and  C16_21
REMARK                            x       y       z     vdW  Elec       q    Type
REMARK                         _______ _______ _______ _____ _____    ______ ____
ROOT
ATOM      1  C4  T04     1     144.392  96.786 134.921  0.00  0.00    +0.243 A 
ATOM      2  N2  T04     1     145.306  95.894 134.546  0.00  0.00    -0.122 NA
ATOM      3  N3  T04     1     145.478  95.962 133.183  0.00  0.00    -0.127 NA
ATOM      4  C5  T04     1     144.650  96.904 132.797  0.00  0.00    +0.182 A 
ATOM      5  C6  T04     1     144.460  97.342 131.459  0.00  0.00    +0.010 A 
ATOM      6  C7  T04     1     143.532  98.345 131.307  0.00  0.00    +0.026 A 
ATOM      7  C8  T04     1     142.851  98.871 132.402  0.00  0.00    +0.237 A 
ATOM      8  N5  T04     1     143.006  98.479 133.681  0.00  0.00    -0.125 NA
ATOM      9  N6  T04     1     143.934  97.475 133.808  0.00  0.00    -0.185 N 
ATOM     10  C17 T04     1     143.371  98.777 129.861  0.00  0.00    +0.025 C 
ATOM     11  C18 T04     1     142.969  97.510 129.047  0.00  0.00    +0.009 C 
ATOM     12  C19 T04     1     144.020  96.369 129.253  0.00  0.00    +0.009 C 
ATOM     13  C20 T04     1     145.151  96.843 130.213  0.00  0.00    +0.023 C 
ATOM     14  C21 T04     1     145.825  98.086 129.565  0.00  0.00    +0.009 C 
ATOM     15  C22 T04     1     144.775  99.228 129.359  0.00  0.00    +0.009 C 
ENDROOT
BRANCH   1  20
ATOM     16  C1  T04     1     142.257  96.401 139.239  0.00  0.00    +0.091 C 
ATOM     17  C2  T04     1     143.134  96.843 138.101  0.00  0.00    +0.169 A 
ATOM     18  N1  T04     1     144.016  97.892 138.244  0.00  0.00    -0.061 NA
ATOM     19  O1  T04     1     144.574  97.927 136.968  0.00  0.00    -0.329 OA
ATOM     20  C3  T04     1     144.006  96.952 136.227  0.00  0.00    +0.298 A 
ATOM     21  N7  T04     1     143.110  96.268 136.906  0.00  0.00    -0.189 NA
ENDBRANCH   1  20
BRANCH   7  22
ATOM     22  O2  T04     1     141.940  99.873 132.170  0.00  0.00    -0.469 OA
BRANCH  22  23
ATOM     23  C9  T04     1     140.512  99.672 132.267  0.00  0.00    +0.286 C 
BRANCH  23  24
ATOM     24  C10 T04     1     140.008  98.877 131.069  0.00  0.00    +0.079 A 
ATOM     25  C11 T04     1     139.712  97.504 131.163  0.00  0.00    +0.027 A 
ATOM     26  C12 T04     1     139.265  96.827 130.017  0.00  0.00    +0.007 A 
ATOM     27  C13 T04     1     139.135  97.538 128.811  0.00  0.00    -0.029 A 
ATOM     28  C14 T04     1     138.652  96.825 127.555  0.00  0.00    +0.045 C 
ATOM     29  C15 T04     1     139.465  98.913 128.807  0.00  0.00    +0.042 A 
ATOM     30  C16 T04     1     139.366  99.760 127.544  0.00  0.00    +0.066 C 
ATOM     31  N4  T04     1     139.891  99.559 129.912  0.00  0.00    -0.253 NA
ENDBRANCH  23  24
ENDBRANCH  22  23
ENDBRANCH   7  22
TORSDOF 4
ENDMDL
MODEL 2
REMARK VINA RESULT:    -8.592      1.225      1.474
REMARK INTER + INTRA:         -12.181
REMARK INTER:                 -11.062
REMARK INTRA:                  -1.118
REMARK UNBOUND:                -1.580
REMARK  Name = ligands_pdb/TRN_CHEMBL122619.pdb
REMARK  7 active torsions:
REMARK  status: ('A' for Active; 'I' for Inactive)
REMARK    1  A    between atoms: C1_1  and  C2_2
REMARK    2  A    between atoms: C3_5  and  C4_6
REMARK    3  A    between atoms: C8_12  and  O2_13
REMARK    4  A    between atoms: O2_13  and  C9_14
REMARK    5  A    between atoms: C9_14  and  C10_15
REMARK    6  A    between atoms: C13_18  and  C14_19
REMARK    7  A    between atoms: C15_20  and  C16_21
REMARK                            x       y       z     vdW  Elec       q    Type
REMARK                         _______ _______ _______ _____ _____    ______ ____
ROOT
ATOM      1  C4  T04     1     144.403  96.962 135.564  0.00  0.00    +0.243 A 
ATOM      2  N2  T04     1     145.716  96.967 135.340  0.00  0.00    -0.122 NA
ATOM      3  N3  T04     1     145.948  96.890 133.987  0.00  0.00    -0.127 NA
ATOM      4  C5  T04     1     144.750  96.842 133.453  0.00  0.00    +0.182 A 
ATOM      5  C6  T04     1     144.465  96.753 132.064  0.00  0.00    +0.010 A 
ATOM      6  C7  T04     1     143.128  96.715 131.751  0.00  0.00    +0.026 A 
ATOM      7  C8  T04     1     142.152  96.767 132.744  0.00  0.00    +0.237 A 
ATOM      8  N5  T04     1     142.387  96.851 134.066  0.00  0.00    -0.125 NA
ATOM      9  N6  T04     1     143.728  96.884 134.356  0.00  0.00    -0.185 N 
ATOM     10  C17 T04     1     142.880  96.623 130.257  0.00  0.00    +0.025 C 
ATOM     11  C18 T04     1     143.613  95.344 129.749  0.00  0.00    +0.009 C 
ATOM     12  C19 T04     1     145.128  95.389 130.138  0.00  0.00    +0.009 C 
ATOM     13  C20 T04     1     145.447  96.698 130.918  0.00  0.00    +0.023 C 
ATOM     14  C21 T04     1     145.093  97.895 129.990  0.00  0.00    +0.009 C 
ATOM     15  C22 T04     1     143.578  97.851 129.600  0.00  0.00    +0.009 C 
ENDROOT
BRANCH   1  20
ATOM     16  C1  T04     1     141.798  96.221 139.567  0.00  0.00    +0.091 C 
ATOM     17  C2  T04     1     142.785  96.765 138.572  0.00  0.00    +0.169 A 
ATOM     18  N1  T04     1     143.606  97.826 138.885  0.00  0.00    -0.061 NA
ATOM     19  O1  T04     1     144.307  97.963 137.688  0.00  0.00    -0.329 OA
ATOM     20  C3  T04     1     143.863  97.027 136.823  0.00  0.00    +0.298 A 
ATOM     21  N7  T04     1     142.920  96.273 137.346  0.00  0.00    -0.189 NA
ENDBRANCH   1  20
BRANCH   7  22
ATOM     22  O2  T04     1     140.835  96.727 132.352  0.00  0.00    -0.469 OA
BRANCH  22  23
ATOM     23  C9  T04     1     140.060  97.917 132.085  0.00  0.00    +0.286 C 
BRANCH  23  24
ATOM     24  C10 T04     1     139.774  98.038 130.595  0.00  0.00    +0.079 A 
ATOM     25  C11 T04     1     139.189  96.986 129.864  0.00  0.00    +0.027 A 
ATOM     26  C12 T04     1     138.965  97.157 128.490  0.00  0.00    +0.007 A 
ATOM     27  C13 T04     1     139.338  98.370 127.883  0.00  0.00    -0.029 A 
ATOM     28  C14 T04     1     139.104  98.578 126.391  0.00  0.00    +0.045 C 
ATOM     29  C15 T04     1     139.928  99.368 128.691  0.00  0.00    +0.042 A 
ATOM     30  C16 T04     1     140.373 100.708 128.118  0.00  0.00    +0.066 C 
ATOM     31  N4  T04     1     140.139  99.199 130.013  0.00  0.00    -0.253 NA
ENDBRANCH  23  24
ENDBRANCH  22  23
ENDBRANCH   7  22
TORSDOF 4
ENDMDL
MODEL 3
REMARK VINA RESULT:    -8.491      3.142      8.155
REMARK INTER + INTRA:         -12.056
REMARK INTER:                 -10.601
REMARK INTRA:                  -1.455
REMARK UNBOUND:                -1.580
REMARK  Name = ligands_pdb/TRN_CHEMBL122619.pdb
REMARK  7 active torsions:
REMARK  status: ('A' for Active; 'I' for Inactive)
REMARK    1  A    between atoms: C1_1  and  C2_2
REMARK    2  A    between atoms: C3_5  and  C4_6
REMARK    3  A    between atoms: C8_12  and  O2_13
REMARK    4  A    between atoms: O2_13  and  C9_14
REMARK    5  A    between atoms: C9_14  and  C10_15
REMARK    6  A    between atoms: C13_18  and  C14_19
REMARK    7  A    between atoms: C15_20  and  C16_21
REMARK                            x       y       z     vdW  Elec       q    Type
REMARK                         _______ _______ _______ _____ _____    ______ ____
ROOT
ATOM      1  C4  T04     1     140.085  97.119 126.856  0.00  0.00    +0.243 A 
ATOM      2  N2  T04     1     140.414  98.282 126.297  0.00  0.00    -0.122 NA
ATOM      3  N3  T04     1     140.794  99.168 127.278  0.00  0.00    -0.127 NA
ATOM      4  C5  T04     1     140.676  98.489 128.394  0.00  0.00    +0.182 A 
ATOM      5  C6  T04     1     140.955  98.982 129.697  0.00  0.00    +0.010 A 
ATOM      6  C7  T04     1     140.753  98.078 130.712  0.00  0.00    +0.026 A 
ATOM      7  C8  T04     1     140.312  96.783 130.448  0.00  0.00    +0.237 A 
ATOM      8  N5  T04     1     140.039  96.284 129.228  0.00  0.00    -0.125 NA
ATOM      9  N6  T04     1     140.244  97.206 128.231  0.00  0.00    -0.185 N 
ATOM     10  C17 T04     1     141.067  98.654 132.080  0.00  0.00    +0.025 C 
ATOM     11  C18 T04     1     140.170  99.915 132.263  0.00  0.00    +0.009 C 
ATOM     12  C19 T04     1     140.391 100.922 131.085  0.00  0.00    +0.009 C 
ATOM     13  C20 T04     1     141.440 100.359 130.083  0.00  0.00    +0.023 C 
ATOM     14  C21 T04     1     142.768 100.145 130.865  0.00  0.00    +0.009 C 
ATOM     15  C22 T04     1     142.548  99.138 132.043  0.00  0.00    +0.009 C 
ENDROOT
BRANCH   1  20
ATOM     16  C1  T04     1     137.650  94.098 123.976  0.00  0.00    +0.091 C 
ATOM     17  C2  T04     1     138.671  94.690 124.907  0.00  0.00    +0.169 A 
ATOM     18  N1  T04     1     139.746  93.952 125.352  0.00  0.00    -0.061 NA
ATOM     19  O1  T04     1     140.378  94.893 126.163  0.00  0.00    -0.329 OA
ATOM     20  C3  T04     1     139.662  96.037 126.128  0.00  0.00    +0.298 A 
ATOM     21  N7  T04     1     138.600  95.936 125.358  0.00  0.00    -0.189 NA
ENDBRANCH   1  20
BRANCH   7  22
ATOM     22  O2  T04     1     140.135  95.935 131.515  0.00  0.00    -0.469 OA
BRANCH  22  23
ATOM     23  C9  T04     1     141.065  94.876 131.837  0.00  0.00    +0.286 C 
BRANCH  23  24
ATOM     24  C10 T04     1     142.286  95.444 132.547  0.00  0.00    +0.079 A 
ATOM     25  C11 T04     1     143.527  95.577 131.896  0.00  0.00    +0.027 A 
ATOM     26  C12 T04     1     144.617  96.095 132.613  0.00  0.00    +0.007 A 
ATOM     27  C13 T04     1     144.439  96.457 133.960  0.00  0.00    -0.029 A 
ATOM     28  C14 T04     1     145.607  97.021 134.758  0.00  0.00    +0.045 C 
ATOM     29  C15 T04     1     143.160  96.280 134.536  0.00  0.00    +0.042 A 
ATOM     30  C16 T04     1     142.877  96.633 135.991  0.00  0.00    +0.066 C 
ATOM     31  N4  T04     1     142.115  95.784 133.841  0.00  0.00    -0.253 NA
ENDBRANCH  23  24
ENDBRANCH  22  23
ENDBRANCH   7  22
TORSDOF 4
ENDMDL
MODEL 4
REMARK VINA RESULT:    -8.135      2.597      7.114
REMARK INTER + INTRA:         -11.617
REMARK INTER:                 -10.884
REMARK INTRA:                  -0.733
REMARK UNBOUND:                -1.580
REMARK  Name = ligands_pdb/TRN_CHEMBL122619.pdb
REMARK  7 active torsions:
REMARK  status: ('A' for Active; 'I' for Inactive)
REMARK    1  A    between atoms: C1_1  and  C2_2
REMARK    2  A    between atoms: C3_5  and  C4_6
REMARK    3  A    between atoms: C8_12  and  O2_13
REMARK    4  A    between atoms: O2_13  and  C9_14
REMARK    5  A    between atoms: C9_14  and  C10_15
REMARK    6  A    between atoms: C13_18  and  C14_19
REMARK    7  A    between atoms: C15_20  and  C16_21
REMARK                            x       y       z     vdW  Elec       q    Type
REMARK                         _______ _______ _______ _____ _____    ______ ____
ROOT
ATOM      1  C4  T04     1     145.809  96.384 131.041  0.00  0.00    +0.243 A 
ATOM      2  N2  T04     1     145.635  96.952 129.849  0.00  0.00    -0.122 NA
ATOM      3  N3  T04     1     144.453  97.654 129.848  0.00  0.00    -0.127 NA
ATOM      4  C5  T04     1     143.965  97.475 131.053  0.00  0.00    +0.182 A 
ATOM      5  C6  T04     1     142.742  98.007 131.540  0.00  0.00    +0.010 A 
ATOM      6  C7  T04     1     142.445  97.676 132.840  0.00  0.00    +0.026 A 
ATOM      7  C8  T04     1     143.302  96.880 133.596  0.00  0.00    +0.237 A 
ATOM      8  N5  T04     1     144.467  96.359 133.167  0.00  0.00    -0.125 NA
ATOM      9  N6  T04     1     144.741  96.700 131.865  0.00  0.00    -0.185 N 
ATOM     10  C17 T04     1     141.130  98.272 133.309  0.00  0.00    +0.025 C 
ATOM     11  C18 T04     1     140.025  97.768 132.334  0.00  0.00    +0.009 C 
ATOM     12  C19 T04     1     140.391  98.128 130.855  0.00  0.00    +0.009 C 
ATOM     13  C20 T04     1     141.753  98.880 130.804  0.00  0.00    +0.023 C 
ATOM     14  C21 T04     1     141.606 100.175 131.654  0.00  0.00    +0.009 C 
ATOM     15  C22 T04     1     141.240  99.816 133.133  0.00  0.00    +0.009 C 
ENDROOT
BRANCH   1  20
ATOM     16  C1  T04     1     148.826  92.723 131.964  0.00  0.00    +0.091 C 
ATOM     17  C2  T04     1     148.251  94.095 131.749  0.00  0.00    +0.169 A 
ATOM     18  N1  T04     1     149.026  95.225 131.889  0.00  0.00    -0.061 NA
ATOM     19  O1  T04     1     148.083  96.213 131.609  0.00  0.00    -0.329 OA
ATOM     20  C3  T04     1     146.903  95.613 131.345  0.00  0.00    +0.298 A 
ATOM     21  N7  T04     1     146.981  94.303 131.426  0.00  0.00    -0.189 NA
ENDBRANCH   1  20
BRANCH   7  22
ATOM     22  O2  T04     1     142.938  96.594 134.890  0.00  0.00    -0.469 OA
BRANCH  22  23
ATOM     23  C9  T04     1     143.878  96.128 135.884  0.00  0.00    +0.286 C 
BRANCH  23  24
ATOM     24  C10 T04     1     143.448  96.585 137.272  0.00  0.00    +0.079 A 
ATOM     25  C11 T04     1     142.331  96.028 137.923  0.00  0.00    +0.027 A 
ATOM     26  C12 T04     1     141.981  96.504 139.196  0.00  0.00    +0.007 A 
ATOM     27  C13 T04     1     142.750  97.528 139.777  0.00  0.00    -0.029 A 
ATOM     28  C14 T04     1     142.388  98.062 141.158  0.00  0.00    +0.045 C 
ATOM     29  C15 T04     1     143.848  98.035 139.048  0.00  0.00    +0.042 A 
ATOM     30  C16 T04     1     144.730  99.152 139.593  0.00  0.00    +0.066 C 
ATOM     31  N4  T04     1     144.183  97.572 137.825  0.00  0.00    -0.253 NA
ENDBRANCH  23  24
ENDBRANCH  22  23
ENDBRANCH   7  22
TORSDOF 4
ENDMDL
MODEL 5
REMARK VINA RESULT:    -8.114      2.390      7.183
REMARK INTER + INTRA:         -11.591
REMARK INTER:                 -10.871
REMARK INTRA:                  -0.720
REMARK UNBOUND:                -1.580
REMARK  Name = ligands_pdb/TRN_CHEMBL122619.pdb
REMARK  7 active torsions:
REMARK  status: ('A' for Active; 'I' for Inactive)
REMARK    1  A    between atoms: C1_1  and  C2_2
REMARK    2  A    between atoms: C3_5  and  C4_6
REMARK    3  A    between atoms: C8_12  and  O2_13
REMARK    4  A    between atoms: O2_13  and  C9_14
REMARK    5  A    between atoms: C9_14  and  C10_15
REMARK    6  A    between atoms: C13_18  and  C14_19
REMARK    7  A    between atoms: C15_20  and  C16_21
REMARK                            x       y       z     vdW  Elec       q    Type
REMARK                         _______ _______ _______ _____ _____    ______ ____
ROOT
ATOM      1  C4  T04     1     143.376  98.162 129.948  0.00  0.00    +0.243 A 
ATOM      2  N2  T04     1     143.957  98.009 128.760  0.00  0.00    -0.122 NA
ATOM      3  N3  T04     1     145.079  97.226 128.899  0.00  0.00    -0.127 NA
ATOM      4  C5  T04     1     145.121  96.941 130.179  0.00  0.00    +0.182 A 
ATOM      5  C6  T04     1     146.111  96.149 130.819  0.00  0.00    +0.010 A 
ATOM      6  C7  T04     1     145.940  95.994 132.174  0.00  0.00    +0.026 A 
ATOM      7  C8  T04     1     144.863  96.578 132.836  0.00  0.00    +0.237 A 
ATOM      8  N5  T04     1     143.908  97.333 132.261  0.00  0.00    -0.125 NA
ATOM      9  N6  T04     1     144.102  97.478 130.910  0.00  0.00    -0.185 N 
ATOM     10  C17 T04     1     147.023  95.139 132.806  0.00  0.00    +0.025 C 
ATOM     11  C18 T04     1     148.388  95.819 132.486  0.00  0.00    +0.009 C 
ATOM     12  C19 T04     1     148.556  96.014 130.942  0.00  0.00    +0.009 C 
ATOM     13  C20 T04     1     147.306  95.472 130.190  0.00  0.00    +0.023 C 
ATOM     14  C21 T04     1     147.173  93.960 130.531  0.00  0.00    +0.009 C 
ATOM     15  C22 T04     1     147.005  93.764 132.075  0.00  0.00    +0.009 C 
ENDROOT
BRANCH   1  20
ATOM     16  C1  T04     1     140.041 101.660 130.016  0.00  0.00    +0.091 C 
ATOM     17  C2  T04     1     140.756 100.348 130.190  0.00  0.00    +0.169 A 
ATOM     18  N1  T04     1     140.144  99.275 130.800  0.00  0.00    -0.061 NA
ATOM     19  O1  T04     1     141.168  98.332 130.735  0.00  0.00    -0.329 OA
ATOM     20  C3  T04     1     142.232  98.899 130.128  0.00  0.00    +0.298 A 
ATOM     21  N7  T04     1     142.002 100.147 129.782  0.00  0.00    -0.189 NA
ENDBRANCH   1  20
BRANCH   7  22
ATOM     22  O2  T04     1     144.757  96.376 134.191  0.00  0.00    -0.469 OA
BRANCH  22  23
ATOM     23  C9  T04     1     144.941  97.435 135.159  0.00  0.00    +0.286 C 
BRANCH  23  24
ATOM     24  C10 T04     1     144.127  97.150 136.414  0.00  0.00    +0.079 A 
ATOM     25  C11 T04     1     143.142  96.144 136.446  0.00  0.00    +0.027 A 
ATOM     26  C12 T04     1     142.418  95.941 137.630  0.00  0.00    +0.007 A 
ATOM     27  C13 T04     1     142.691  96.754 138.745  0.00  0.00    -0.029 A 
ATOM     28  C14 T04     1     141.917  96.553 140.042  0.00  0.00    +0.045 C 
ATOM     29  C15 T04     1     143.690  97.746 138.620  0.00  0.00    +0.042 A 
ATOM     30  C16 T04     1     144.045  98.679 139.771  0.00  0.00    +0.066 C 
ATOM     31  N4  T04     1     144.385  97.934 137.479  0.00  0.00    -0.253 NA
ENDBRANCH  23  24
ENDBRANCH  22  23
ENDBRANCH   7  22
TORSDOF 4
ENDMDL
MODEL 6
REMARK VINA RESULT:    -7.928      3.089      7.722
REMARK INTER + INTRA:         -11.362
REMARK INTER:                 -10.175
REMARK INTRA:                  -1.187
REMARK UNBOUND:                -1.580
REMARK  Name = ligands_pdb/TRN_CHEMBL122619.pdb
REMARK  7 active torsions:
REMARK  status: ('A' for Active; 'I' for Inactive)
REMARK    1  A    between atoms: C1_1  and  C2_2
REMARK    2  A    between atoms: C3_5  and  C4_6
REMARK    3  A    between atoms: C8_12  and  O2_13
REMARK    4  A    between atoms: O2_13  and  C9_14
REMARK    5  A    between atoms: C9_14  and  C10_15
REMARK    6  A    between atoms: C13_18  and  C14_19
REMARK    7  A    between atoms: C15_20  and  C16_21
REMARK                            x       y       z     vdW  Elec       q    Type
REMARK                         _______ _______ _______ _____ _____    ______ ____
ROOT
ATOM      1  C4  T04     1     139.248  98.212 128.638  0.00  0.00    +0.243 A 
ATOM      2  N2  T04     1     139.338  99.538 128.565  0.00  0.00    -0.122 NA
ATOM      3  N3  T04     1     139.909 100.021 129.719  0.00  0.00    -0.127 NA
ATOM      4  C5  T04     1     140.138  98.951 130.442  0.00  0.00    +0.182 A 
ATOM      5  C6  T04     1     140.722  98.935 131.736  0.00  0.00    +0.010 A 
ATOM      6  C7  T04     1     140.858  97.686 132.293  0.00  0.00    +0.026 A 
ATOM      7  C8  T04     1     140.448  96.543 131.611  0.00  0.00    +0.237 A 
ATOM      8  N5  T04     1     139.892  96.522 130.385  0.00  0.00    -0.125 NA
ATOM      9  N6  T04     1     139.762  97.780 129.851  0.00  0.00    -0.185 N 
ATOM     10  C17 T04     1     141.489  97.726 133.673  0.00  0.00    +0.025 C 
ATOM     11  C18 T04     1     140.593  98.643 134.559  0.00  0.00    +0.009 C 
ATOM     12  C19 T04     1     140.425 100.051 133.898  0.00  0.00    +0.009 C 
ATOM     13  C20 T04     1     141.202 100.112 132.551  0.00  0.00    +0.023 C 
ATOM     14  C21 T04     1     142.702  99.839 132.863  0.00  0.00    +0.009 C 
ATOM     15  C22 T04     1     142.871  98.430 133.523  0.00  0.00    +0.009 C 
ENDROOT
BRANCH   1  20
ATOM     16  C1  T04     1     138.405  94.798 125.322  0.00  0.00    +0.091 C 
ATOM     17  C2  T04     1     138.292  96.018 126.194  0.00  0.00    +0.169 A 
ATOM     18  N1  T04     1     137.240  96.898 126.060  0.00  0.00    -0.061 NA
ATOM     19  O1  T04     1     137.567  97.832 127.040  0.00  0.00    -0.329 OA
ATOM     20  C3  T04     1     138.716  97.445 127.633  0.00  0.00    +0.298 A 
ATOM     21  N7  T04     1     139.185  96.326 127.126  0.00  0.00    -0.189 NA
ENDBRANCH   1  20
BRANCH   7  22
ATOM     22  O2  T04     1     140.619  95.329 132.231  0.00  0.00    -0.469 OA
BRANCH  22  23
ATOM     23  C9  T04     1     141.455  94.281 131.689  0.00  0.00    +0.286 C 
BRANCH  23  24
ATOM     24  C10 T04     1     142.757  94.866 131.160  0.00  0.00    +0.079 A 
ATOM     25  C11 T04     1     143.029  94.943 129.781  0.00  0.00    +0.027 A 
ATOM     26  C12 T04     1     144.255  95.482 129.360  0.00  0.00    +0.007 A 
ATOM     27  C13 T04     1     145.177  95.918 130.328  0.00  0.00    -0.029 A 
ATOM     28  C14 T04     1     146.515  96.505 129.896  0.00  0.00    +0.045 C 
ATOM     29  C15 T04     1     144.825  95.794 131.691  0.00  0.00    +0.042 A 
ATOM     30  C16 T04     1     145.765  96.230 132.809  0.00  0.00    +0.066 C 
ATOM     31  N4  T04     1     143.643  95.278 132.090  0.00  0.00    -0.253 NA
ENDBRANCH  23  24
ENDBRANCH  22  23
ENDBRANCH   7  22
TORSDOF 4
ENDMDL
MODEL 7
REMARK VINA RESULT:    -7.915      3.630      7.606
REMARK INTER + INTRA:         -11.345
REMARK INTER:                 -10.082
REMARK INTRA:                  -1.264
REMARK UNBOUND:                -1.580
REMARK  Name = ligands_pdb/TRN_CHEMBL122619.pdb
REMARK  7 active torsions:
REMARK  status: ('A' for Active; 'I' for Inactive)
REMARK    1  A    between atoms: C1_1  and  C2_2
REMARK    2  A    between atoms: C3_5  and  C4_6
REMARK    3  A    between atoms: C8_12  and  O2_13
REMARK    4  A    between atoms: O2_13  and  C9_14
REMARK    5  A    between atoms: C9_14  and  C10_15
REMARK    6  A    between atoms: C13_18  and  C14_19
REMARK    7  A    between atoms: C15_20  and  C16_21
REMARK                            x       y       z     vdW  Elec       q    Type
REMARK                         _______ _______ _______ _____ _____    ______ ____
ROOT
ATOM      1  C4  T04     1     139.178  98.125 128.695  0.00  0.00    +0.243 A 
ATOM      2  N2  T04     1     139.104  99.455 128.689  0.00  0.00    -0.122 NA
ATOM      3  N3  T04     1     139.677  99.949 129.837  0.00  0.00    -0.127 NA
ATOM      4  C5  T04     1     140.074  98.882 130.489  0.00  0.00    +0.182 A 
ATOM      5  C6  T04     1     140.728  98.877 131.749  0.00  0.00    +0.010 A 
ATOM      6  C7  T04     1     141.045  97.629 132.230  0.00  0.00    +0.026 A 
ATOM      7  C8  T04     1     140.738  96.478 131.509  0.00  0.00    +0.237 A 
ATOM      8  N5  T04     1     140.119  96.446 130.314  0.00  0.00    -0.125 NA
ATOM      9  N6  T04     1     139.809  97.703 129.855  0.00  0.00    -0.185 N 
ATOM     10  C17 T04     1     141.744  97.681 133.577  0.00  0.00    +0.025 C 
ATOM     11  C18 T04     1     140.795  98.437 134.555  0.00  0.00    +0.009 C 
ATOM     12  C19 T04     1     140.422  99.844 133.981  0.00  0.00    +0.009 C 
ATOM     13  C20 T04     1     141.108 100.064 132.601  0.00  0.00    +0.023 C 
ATOM     14  C21 T04     1     142.645  99.963 132.821  0.00  0.00    +0.009 C 
ATOM     15  C22 T04     1     143.020  98.556 133.396  0.00  0.00    +0.009 C 
ENDROOT
BRANCH   1  20
ATOM     16  C1  T04     1     138.517  94.728 125.322  0.00  0.00    +0.091 C 
ATOM     17  C2  T04     1     138.338  95.924 126.216  0.00  0.00    +0.169 A 
ATOM     18  N1  T04     1     137.238  96.745 126.100  0.00  0.00    -0.061 NA
ATOM     19  O1  T04     1     137.515  97.679 127.096  0.00  0.00    -0.329 OA
ATOM     20  C3  T04     1     138.687  97.347 127.678  0.00  0.00    +0.298 A 
ATOM     21  N7  T04     1     139.216  96.265 127.150  0.00  0.00    -0.189 NA
ENDBRANCH   1  20
BRANCH   7  22
ATOM     22  O2  T04     1     141.089  95.266 132.054  0.00  0.00    -0.469 OA
BRANCH  22  23
ATOM     23  C9  T04     1     141.982  94.340 131.396  0.00  0.00    +0.286 C 
BRANCH  23  24
ATOM     24  C10 T04     1     143.216  95.071 130.883  0.00  0.00    +0.079 A 
ATOM     25  C11 T04     1     144.193  95.581 131.759  0.00  0.00    +0.027 A 
ATOM     26  C12 T04     1     145.299  96.257 131.222  0.00  0.00    +0.007 A 
ATOM     27  C13 T04     1     145.394  96.411 129.827  0.00  0.00    -0.029 A 
ATOM     28  C14 T04     1     146.586  97.142 129.221  0.00  0.00    +0.045 C 
ATOM     29  C15 T04     1     144.362  95.875 129.024  0.00  0.00    +0.042 A 
ATOM     30  C16 T04     1     144.375  96.003 127.506  0.00  0.00    +0.066 C 
ATOM     31  N4  T04     1     143.302  95.223 129.546  0.00  0.00    -0.253 NA
ENDBRANCH  23  24
ENDBRANCH  22  23
ENDBRANCH   7  22
TORSDOF 4
ENDMDL
MODEL 8
REMARK VINA RESULT:    -7.702      2.667      6.906
REMARK INTER + INTRA:         -11.083
REMARK INTER:                 -10.184
REMARK INTRA:                  -0.899
REMARK UNBOUND:                -1.580
REMARK  Name = ligands_pdb/TRN_CHEMBL122619.pdb
REMARK  7 active torsions:
REMARK  status: ('A' for Active; 'I' for Inactive)
REMARK    1  A    between atoms: C1_1  and  C2_2
REMARK    2  A    between atoms: C3_5  and  C4_6
REMARK    3  A    between atoms: C8_12  and  O2_13
REMARK    4  A    between atoms: O2_13  and  C9_14
REMARK    5  A    between atoms: C9_14  and  C10_15
REMARK    6  A    between atoms: C13_18  and  C14_19
REMARK    7  A    between atoms: C15_20  and  C16_21
REMARK                            x       y       z     vdW  Elec       q    Type
REMARK                         _______ _______ _______ _____ _____    ______ ____
ROOT
ATOM      1  C4  T04     1     140.686  99.196 128.150  0.00  0.00    +0.243 A 
ATOM      2  N2  T04     1     140.289  98.903 126.913  0.00  0.00    -0.122 NA
ATOM      3  N3  T04     1     141.022  97.841 126.439  0.00  0.00    -0.127 NA
ATOM      4  C5  T04     1     141.836  97.540 127.423  0.00  0.00    +0.182 A 
ATOM      5  C6  T04     1     142.804  96.501 127.410  0.00  0.00    +0.010 A 
ATOM      6  C7  T04     1     143.541  96.384 128.564  0.00  0.00    +0.026 A 
ATOM      7  C8  T04     1     143.326  97.233 129.647  0.00  0.00    +0.237 A 
ATOM      8  N5  T04     1     142.419  98.227 129.693  0.00  0.00    -0.125 NA
ATOM      9  N6  T04     1     141.698  98.328 128.529  0.00  0.00    -0.185 N 
ATOM     10  C17 T04     1     144.556  95.258 128.498  0.00  0.00    +0.025 C 
ATOM     11  C18 T04     1     145.474  95.541 127.270  0.00  0.00    +0.009 C 
ATOM     12  C19 T04     1     144.618  95.700 125.970  0.00  0.00    +0.009 C 
ATOM     13  C20 T04     1     143.105  95.529 126.294  0.00  0.00    +0.023 C 
ATOM     14  C21 T04     1     142.913  94.107 126.896  0.00  0.00    +0.009 C 
ATOM     15  C22 T04     1     143.768  93.948 128.197  0.00  0.00    +0.009 C 
ENDROOT
BRANCH   1  20
ATOM     16  C1  T04     1     137.688 102.113 130.571  0.00  0.00    +0.091 C 
ATOM     17  C2  T04     1     138.912 101.509 129.939  0.00  0.00    +0.169 A 
ATOM     18  N1  T04     1     140.140 102.128 130.024  0.00  0.00    -0.061 NA
ATOM     19  O1  T04     1     140.925 101.227 129.308  0.00  0.00    -0.329 OA
ATOM     20  C3  T04     1     140.137 100.215 128.886  0.00  0.00    +0.298 A 
ATOM     21  N7  T04     1     138.887 100.367 129.264  0.00  0.00    -0.189 NA
ENDBRANCH   1  20
BRANCH   7  22
ATOM     22  O2  T04     1     144.101  97.053 130.767  0.00  0.00    -0.469 OA
BRANCH  22  23
ATOM     23  C9  T04     1     144.449  98.133 131.662  0.00  0.00    +0.286 C 
BRANCH  23  24
ATOM     24  C10 T04     1     143.896  97.864 133.055  0.00  0.00    +0.079 A 
ATOM     25  C11 T04     1     144.644  97.175 134.029  0.00  0.00    +0.027 A 
ATOM     26  C12 T04     1     144.070  96.947 135.290  0.00  0.00    +0.007 A 
ATOM     27  C13 T04     1     142.765  97.407 135.539  0.00  0.00    -0.029 A 
ATOM     28  C14 T04     1     142.121  97.171 136.899  0.00  0.00    +0.045 C 
ATOM     29  C15 T04     1     142.084  98.080 134.499  0.00  0.00    +0.042 A 
ATOM     30  C16 T04     1     140.663  98.603 134.675  0.00  0.00    +0.066 C 
ATOM     31  N4  T04     1     142.641  98.299 133.290  0.00  0.00    -0.253 NA
ENDBRANCH  23  24
ENDBRANCH  22  23
ENDBRANCH   7  22
TORSDOF 4
ENDMDL
MODEL 9
REMARK VINA RESULT:    -7.650      2.804      5.747
REMARK INTER + INTRA:         -11.018
REMARK INTER:                 -10.310
REMARK INTRA:                  -0.709
REMARK UNBOUND:                -1.580
REMARK  Name = ligands_pdb/TRN_CHEMBL122619.pdb
REMARK  7 active torsions:
REMARK  status: ('A' for Active; 'I' for Inactive)
REMARK    1  A    between atoms: C1_1  and  C2_2
REMARK    2  A    between atoms: C3_5  and  C4_6
REMARK    3  A    between atoms: C8_12  and  O2_13
REMARK    4  A    between atoms: O2_13  and  C9_14
REMARK    5  A    between atoms: C9_14  and  C10_15
REMARK    6  A    between atoms: C13_18  and  C14_19
REMARK    7  A    between atoms: C15_20  and  C16_21
REMARK                            x       y       z     vdW  Elec       q    Type
REMARK                         _______ _______ _______ _____ _____    ______ ____
ROOT
ATOM      1  C4  T04     1     142.124  97.536 135.594  0.00  0.00    +0.243 A 
ATOM      2  N2  T04     1     140.933  98.031 135.262  0.00  0.00    -0.122 NA
ATOM      3  N3  T04     1     140.922  98.331 133.920  0.00  0.00    -0.127 NA
ATOM      4  C5  T04     1     142.120  97.999 133.501  0.00  0.00    +0.182 A 
ATOM      5  C6  T04     1     142.598  98.128 132.170  0.00  0.00    +0.010 A 
ATOM      6  C7  T04     1     143.894  97.713 131.979  0.00  0.00    +0.026 A 
ATOM      7  C8  T04     1     144.652  97.205 133.032  0.00  0.00    +0.237 A 
ATOM      8  N5  T04     1     144.232  97.070 134.304  0.00  0.00    -0.125 NA
ATOM      9  N6  T04     1     142.937  97.494 134.471  0.00  0.00    -0.185 N 
ATOM     10  C17 T04     1     144.352  97.869 130.541  0.00  0.00    +0.025 C 
ATOM     11  C18 T04     1     144.182  99.373 130.167  0.00  0.00    +0.009 C 
ATOM     12  C19 T04     1     142.708  99.837 130.417  0.00  0.00    +0.009 C 
ATOM     13  C20 T04     1     141.856  98.656 130.966  0.00  0.00    +0.023 C 
ATOM     14  C21 T04     1     141.890  97.519 129.904  0.00  0.00    +0.009 C 
ATOM     15  C22 T04     1     143.364  97.054 129.655  0.00  0.00    +0.009 C 
ENDROOT
BRANCH   1  20
ATOM     16  C1  T04     1     142.045  96.554 140.325  0.00  0.00    +0.091 C 
ATOM     17  C2  T04     1     142.475  96.698 138.891  0.00  0.00    +0.169 A 
ATOM     18  N1  T04     1     143.737  96.329 138.483  0.00  0.00    -0.061 NA
ATOM     19  O1  T04     1     143.666  96.646 137.128  0.00  0.00    -0.329 OA
ATOM     20  C3  T04     1     142.438  97.146 136.871  0.00  0.00    +0.298 A 
ATOM     21  N7  T04     1     141.683  97.189 137.946  0.00  0.00    -0.189 NA
ENDBRANCH   1  20
BRANCH   7  22
ATOM     22  O2  T04     1     145.940  96.808 132.763  0.00  0.00    -0.469 OA
BRANCH  22  23
ATOM     23  C9  T04     1     146.547  95.648 133.375  0.00  0.00    +0.286 C 
BRANCH  23  24
ATOM     24  C10 T04     1     146.780  94.562 132.333  0.00  0.00    +0.079 A 
ATOM     25  C11 T04     1     146.276  94.672 131.023  0.00  0.00    +0.027 A 
ATOM     26  C12 T04     1     146.515  93.630 130.115  0.00  0.00    +0.007 A 
ATOM     27  C13 T04     1     147.241  92.504 130.543  0.00  0.00    -0.029 A 
ATOM     28  C14 T04     1     147.511  91.359 129.575  0.00  0.00    +0.045 C 
ATOM     29  C15 T04     1     147.700  92.473 131.879  0.00  0.00    +0.042 A 
ATOM     30  C16 T04     1     148.484  91.290 132.434  0.00  0.00    +0.066 C 
ATOM     31  N4  T04     1     147.470  93.481 132.747  0.00  0.00    -0.253 NA
ENDBRANCH  23  24
ENDBRANCH  22  23
ENDBRANCH   7  22
TORSDOF 4
ENDMDL
MODEL 10
REMARK VINA RESULT:    -7.613      3.464      7.402
REMARK INTER + INTRA:         -10.972
REMARK INTER:                  -9.576
REMARK INTRA:                  -1.396
REMARK UNBOUND:                -1.580
REMARK  Name = ligands_pdb/TRN_CHEMBL122619.pdb
REMARK  7 active torsions:
REMARK  status: ('A' for Active; 'I' for Inactive)
REMARK    1  A    between atoms: C1_1  and  C2_2
REMARK    2  A    between atoms: C3_5  and  C4_6
REMARK    3  A    between atoms: C8_12  and  O2_13
REMARK    4  A    between atoms: O2_13  and  C9_14
REMARK    5  A    between atoms: C9_14  and  C10_15
REMARK    6  A    between atoms: C13_18  and  C14_19
REMARK    7  A    between atoms: C15_20  and  C16_21
REMARK                            x       y       z     vdW  Elec       q    Type
REMARK                         _______ _______ _______ _____ _____    ______ ____
ROOT
ATOM      1  C4  T04     1     143.800  95.807 127.093  0.00  0.00    +0.243 A 
ATOM      2  N2  T04     1     142.851  94.963 126.694  0.00  0.00    -0.122 NA
ATOM      3  N3  T04     1     141.629  95.404 127.144  0.00  0.00    -0.127 NA
ATOM      4  C5  T04     1     141.903  96.506 127.802  0.00  0.00    +0.182 A 
ATOM      5  C6  T04     1     140.956  97.334 128.461  0.00  0.00    +0.010 A 
ATOM      6  C7  T04     1     141.489  98.437 129.084  0.00  0.00    +0.026 A 
ATOM      7  C8  T04     1     142.856  98.696 129.048  0.00  0.00    +0.237 A 
ATOM      8  N5  T04     1     143.780  97.934 128.433  0.00  0.00    -0.125 NA
ATOM      9  N6  T04     1     143.226  96.837 127.822  0.00  0.00    -0.185 N 
ATOM     10  C17 T04     1     140.435  99.287 129.770  0.00  0.00    +0.025 C 
ATOM     11  C18 T04     1     139.697  98.367 130.789  0.00  0.00    +0.009 C 
ATOM     12  C19 T04     1     139.121  97.102 130.070  0.00  0.00    +0.009 C 
ATOM     13  C20 T04     1     139.461  97.142 128.551  0.00  0.00    +0.023 C 
ATOM     14  C21 T04     1     138.824  98.434 127.963  0.00  0.00    +0.009 C 
ATOM     15  C22 T04     1     139.400  99.700 128.681  0.00  0.00    +0.009 C 
ENDROOT
BRANCH   1  20
ATOM     16  C1  T04     1     148.601  95.295 127.309  0.00  0.00    +0.091 C 
ATOM     17  C2  T04     1     147.185  95.400 126.814  0.00  0.00    +0.169 A 
ATOM     18  N1  T04     1     146.888  95.311 125.472  0.00  0.00    -0.061 NA
ATOM     19  O1  T04     1     145.504  95.469 125.510  0.00  0.00    -0.329 OA
ATOM     20  C3  T04     1     145.128  95.629 126.797  0.00  0.00    +0.298 A 
ATOM     21  N7  T04     1     146.151  95.590 127.623  0.00  0.00    -0.189 NA
ENDBRANCH   1  20
BRANCH   7  22
ATOM     22  O2  T04     1     143.314  99.821 129.692  0.00  0.00    -0.469 OA
BRANCH  22  23
ATOM     23  C9  T04     1     144.374  99.785 130.675  0.00  0.00    +0.286 C 
BRANCH  23  24
ATOM     24  C10 T04     1     143.883  99.126 131.957  0.00  0.00    +0.079 A 
ATOM     25  C11 T04     1     142.750  99.600 132.647  0.00  0.00    +0.027 A 
ATOM     26  C12 T04     1     142.358  98.955 133.830  0.00  0.00    +0.007 A 
ATOM     27  C13 T04     1     143.113  97.863 134.295  0.00  0.00    -0.029 A 
ATOM     28  C14 T04     1     142.707  97.148 135.578  0.00  0.00    +0.045 C 
ATOM     29  C15 T04     1     144.241  97.462 133.544  0.00  0.00    +0.042 A 
ATOM     30  C16 T04     1     145.123  96.298 133.977  0.00  0.00    +0.066 C 
ATOM     31  N4  T04     1     144.611  98.084 132.405  0.00  0.00    -0.253 NA
ENDBRANCH  23  24
ENDBRANCH  22  23
ENDBRANCH   7  22
TORSDOF 4
ENDMDL
