MODEL 1
REMARK VINA RESULT:    -8.487      0.000      0.000
REMARK INTER + INTRA:         -11.129
REMARK INTER:                 -10.472
REMARK INTRA:                  -0.656
REMARK UNBOUND:                -0.656
REMARK  Name = ligands_pdb/TRN_CHEMBL334246.pdb
REMARK  5 active torsions:
REMARK  status: ('A' for Active; 'I' for Inactive)
REMARK    1  A    between atoms: C1_1  and  C2_2
REMARK    2  A    between atoms: C3_5  and  C4_6
REMARK    3  A    between atoms: C8_12  and  O2_13
REMARK    4  A    between atoms: O2_13  and  C9_14
REMARK    5  A    between atoms: C9_14  and  C10_15
REMARK                            x       y       z     vdW  Elec       q    Type
REMARK                         _______ _______ _______ _____ _____    ______ ____
ROOT
ATOM      1  C4  T14     1     144.382  96.766 135.511  0.00  0.00    +0.243 A 
ATOM      2  N2  T14     1     145.743  96.925 135.284  0.00  0.00    -0.122 NA
ATOM      3  N3  T14     1     145.982  96.739 134.003  0.00  0.00    -0.127 NA
ATOM      4  C5  T14     1     144.769  96.472 133.472  0.00  0.00    +0.182 A 
ATOM      5  C6  T14     1     144.488  96.199 132.123  0.00  0.00    +0.010 A 
ATOM      6  C7  T14     1     143.156  95.941 131.751  0.00  0.00    +0.026 A 
ATOM      7  C8  T14     1     142.135  95.961 132.728  0.00  0.00    +0.237 A 
ATOM      8  N6  T14     1     142.426  96.226 134.026  0.00  0.00    -0.125 NA
ATOM      9  N7  T14     1     143.723  96.470 134.342  0.00  0.00    -0.185 N 
ATOM     10  C13 T14     1     142.977  95.659 130.260  0.00  0.00    +0.025 C 
ATOM     11  C14 T14     1     143.887  94.443 129.916  0.00  0.00    +0.009 C 
ATOM     12  C15 T14     1     145.366  94.731 130.335  0.00  0.00    +0.009 C 
ATOM     13  C16 T14     1     145.488  96.146 130.971  0.00  0.00    +0.023 C 
ATOM     14  C17 T14     1     145.010  97.181 129.913  0.00  0.00    +0.009 C 
ATOM     15  C18 T14     1     143.531  96.895 129.494  0.00  0.00    +0.009 C 
ENDROOT
BRANCH   1  20
ATOM     16  C1  T14     1     141.774  96.232 139.544  0.00  0.00    +0.091 C 
ATOM     17  C2  T14     1     142.754  96.732 138.519  0.00  0.00    +0.169 A 
ATOM     18  N1  T14     1     143.551  97.828 138.763  0.00  0.00    -0.061 NA
ATOM     19  O1  T14     1     144.254  97.902 137.563  0.00  0.00    -0.329 OA
ATOM     20  C3  T14     1     143.832  96.902 136.760  0.00  0.00    +0.298 A 
ATOM     21  N8  T14     1     142.903  96.165 137.328  0.00  0.00    -0.189 NA
ENDBRANCH   1  20
BRANCH   7  22
ATOM     22  O2  T14     1     140.839  95.706 132.337  0.00  0.00    -0.467 OA
BRANCH  22  23
ATOM     23  C9  T14     1     140.076  96.657 131.564  0.00  0.00    +0.304 C 
BRANCH  23  24
ATOM     24  C10 T14     1     140.471  98.067 131.926  0.00  0.00    +0.145 A 
ATOM     25  N4  T14     1     140.978  98.928 131.064  0.00  0.00    -0.237 NA
ATOM     26  C11 T14     1     141.199 100.080 131.777  0.00  0.00    +0.130 A 
ATOM     27  C12 T14     1     140.822  99.919 133.087  0.00  0.00    +0.104 A 
ATOM     28  N5  T14     1     140.356  98.628 133.180  0.00  0.00    -0.346 N 
ATOM     29  H1  T14     1     139.996  98.168 134.005  0.00  0.00    +0.167 HD
ENDBRANCH  23  24
ENDBRANCH  22  23
ENDBRANCH   7  22
TORSDOF 4
ENDMDL
MODEL 2
REMARK VINA RESULT:    -8.308      1.453      1.852
REMARK INTER + INTRA:         -10.908
REMARK INTER:                 -10.171
REMARK INTRA:                  -0.737
REMARK UNBOUND:                -0.656
REMARK  Name = ligands_pdb/TRN_CHEMBL334246.pdb
REMARK  5 active torsions:
REMARK  status: ('A' for Active; 'I' for Inactive)
REMARK    1  A    between atoms: C1_1  and  C2_2
REMARK    2  A    between atoms: C3_5  and  C4_6
REMARK    3  A    between atoms: C8_12  and  O2_13
REMARK    4  A    between atoms: O2_13  and  C9_14
REMARK    5  A    between atoms: C9_14  and  C10_15
REMARK                            x       y       z     vdW  Elec       q    Type
REMARK                         _______ _______ _______ _____ _____    ______ ____
ROOT
ATOM      1  C4  T14     1     144.104  96.748 135.776  0.00  0.00    +0.243 A 
ATOM      2  N2  T14     1     145.313  96.123 135.497  0.00  0.00    -0.122 NA
ATOM      3  N3  T14     1     145.468  96.064 134.192  0.00  0.00    -0.127 NA
ATOM      4  C5  T14     1     144.357  96.651 133.696  0.00  0.00    +0.182 A 
ATOM      5  C6  T14     1     144.042  96.836 132.340  0.00  0.00    +0.010 A 
ATOM      6  C7  T14     1     142.831  97.471 132.010  0.00  0.00    +0.026 A 
ATOM      7  C8  T14     1     141.962  97.908 133.036  0.00  0.00    +0.237 A 
ATOM      8  N6  T14     1     142.283  97.719 134.339  0.00  0.00    -0.125 NA
ATOM      9  N7  T14     1     143.459  97.102 134.615  0.00  0.00    -0.185 N 
ATOM     10  C13 T14     1     142.601  97.616 130.507  0.00  0.00    +0.025 C 
ATOM     11  C14 T14     1     142.651  96.183 129.901  0.00  0.00    +0.009 C 
ATOM     12  C15 T14     1     143.997  95.477 130.274  0.00  0.00    +0.009 C 
ATOM     13  C16 T14     1     144.884  96.418 131.139  0.00  0.00    +0.023 C 
ATOM     14  C17 T14     1     145.156  97.705 130.309  0.00  0.00    +0.009 C 
ATOM     15  C18 T14     1     143.812  98.412 129.937  0.00  0.00    +0.009 C 
ENDROOT
BRANCH   1  20
ATOM     16  C1  T14     1     141.770  96.536 140.002  0.00  0.00    +0.091 C 
ATOM     17  C2  T14     1     142.717  96.917 138.897  0.00  0.00    +0.169 A 
ATOM     18  N1  T14     1     143.645  97.922 139.063  0.00  0.00    -0.061 NA
ATOM     19  O1  T14     1     144.258  97.909 137.812  0.00  0.00    -0.329 OA
ATOM     20  C3  T14     1     143.670  96.953 137.060  0.00  0.00    +0.298 A 
ATOM     21  N8  T14     1     142.712  96.327 137.709  0.00  0.00    -0.189 NA
ENDBRANCH   1  20
BRANCH   7  22
ATOM     22  O2  T14     1     140.782  98.527 132.685  0.00  0.00    -0.467 OA
BRANCH  22  23
ATOM     23  C9  T14     1     140.709  99.951 132.457  0.00  0.00    +0.304 C 
BRANCH  23  24
ATOM     24  C10 T14     1     140.349 100.236 131.021  0.00  0.00    +0.145 A 
ATOM     25  N4  T14     1     141.101 100.953 130.207  0.00  0.00    -0.237 NA
ATOM     26  C11 T14     1     140.431 100.976 129.008  0.00  0.00    +0.130 A 
ATOM     27  C12 T14     1     139.260 100.266 129.093  0.00  0.00    +0.104 A 
ATOM     28  N5  T14     1     139.209  99.792 130.383  0.00  0.00    -0.346 N 
ATOM     29  H1  T14     1     138.481  99.226 130.797  0.00  0.00    +0.167 HD
ENDBRANCH  23  24
ENDBRANCH  22  23
ENDBRANCH   7  22
TORSDOF 4
ENDMDL
MODEL 3
REMARK VINA RESULT:    -8.076      2.225      4.820
REMARK INTER + INTRA:         -10.621
REMARK INTER:                 -10.121
REMARK INTRA:                  -0.500
REMARK UNBOUND:                -0.656
REMARK  Name = ligands_pdb/TRN_CHEMBL334246.pdb
REMARK  5 active torsions:
REMARK  status: ('A' for Active; 'I' for Inactive)
REMARK    1  A    between atoms: C1_1  and  C2_2
REMARK    2  A    between atoms: C3_5  and  C4_6
REMARK    3  A    between atoms: C8_12  and  O2_13
REMARK    4  A    between atoms: O2_13  and  C9_14
REMARK    5  A    between atoms: C9_14  and  C10_15
REMARK                            x       y       z     vdW  Elec       q    Type
REMARK                         _______ _______ _______ _____ _____    ______ ____
ROOT
ATOM      1  C4  T14     1     142.097  97.477 135.623  0.00  0.00    +0.243 A 
ATOM      2  N2  T14     1     140.865  98.015 135.274  0.00  0.00    -0.122 NA
ATOM      3  N3  T14     1     140.891  98.338 133.998  0.00  0.00    -0.127 NA
ATOM      4  C5  T14     1     142.131  97.994 133.591  0.00  0.00    +0.182 A 
ATOM      5  C6  T14     1     142.658  98.140 132.297  0.00  0.00    +0.010 A 
ATOM      6  C7  T14     1     143.980  97.723 132.057  0.00  0.00    +0.026 A 
ATOM      7  C8  T14     1     144.747  97.170 133.108  0.00  0.00    +0.237 A 
ATOM      8  N6  T14     1     144.221  97.038 134.351  0.00  0.00    -0.125 NA
ATOM      9  N7  T14     1     142.943  97.452 134.541  0.00  0.00    -0.185 N 
ATOM     10  C13 T14     1     144.439  97.932 130.615  0.00  0.00    +0.025 C 
ATOM     11  C14 T14     1     144.277  99.448 130.303  0.00  0.00    +0.009 C 
ATOM     12  C15 T14     1     142.808  99.910 130.576  0.00  0.00    +0.009 C 
ATOM     13  C16 T14     1     141.945  98.716 131.078  0.00  0.00    +0.023 C 
ATOM     14  C17 T14     1     141.976  97.616 129.978  0.00  0.00    +0.009 C 
ATOM     15  C18 T14     1     143.444  97.154 129.705  0.00  0.00    +0.009 C 
ENDROOT
BRANCH   1  20
ATOM     16  C1  T14     1     142.029  96.657 140.385  0.00  0.00    +0.091 C 
ATOM     17  C2  T14     1     142.400  96.649 138.928  0.00  0.00    +0.169 A 
ATOM     18  N1  T14     1     143.493  95.947 138.470  0.00  0.00    -0.061 NA
ATOM     19  O1  T14     1     143.431  96.240 137.110  0.00  0.00    -0.329 OA
ATOM     20  C3  T14     1     142.369  97.046 136.896  0.00  0.00    +0.298 A 
ATOM     21  N8  T14     1     141.716  97.315 138.006  0.00  0.00    -0.189 NA
ENDBRANCH   1  20
BRANCH   7  22
ATOM     22  O2  T14     1     146.039  96.770 132.846  0.00  0.00    -0.467 OA
BRANCH  22  23
ATOM     23  C9  T14     1     146.656  95.676 133.558  0.00  0.00    +0.304 C 
BRANCH  23  24
ATOM     24  C10 T14     1     146.981  94.548 132.610  0.00  0.00    +0.145 A 
ATOM     25  N4  T14     1     146.545  94.492 131.366  0.00  0.00    -0.237 NA
ATOM     26  C11 T14     1     147.055  93.326 130.848  0.00  0.00    +0.130 A 
ATOM     27  C12 T14     1     147.810  92.668 131.787  0.00  0.00    +0.104 A 
ATOM     28  N5  T14     1     147.761  93.453 132.915  0.00  0.00    -0.346 N 
ATOM     29  H1  T14     1     148.206  93.272 133.803  0.00  0.00    +0.167 HD
ENDBRANCH  23  24
ENDBRANCH  22  23
ENDBRANCH   7  22
TORSDOF 4
ENDMDL
MODEL 4
REMARK VINA RESULT:    -7.990      3.362      7.746
REMARK INTER + INTRA:         -10.514
REMARK INTER:                  -9.786
REMARK INTRA:                  -0.728
REMARK UNBOUND:                -0.656
REMARK  Name = ligands_pdb/TRN_CHEMBL334246.pdb
REMARK  5 active torsions:
REMARK  status: ('A' for Active; 'I' for Inactive)
REMARK    1  A    between atoms: C1_1  and  C2_2
REMARK    2  A    between atoms: C3_5  and  C4_6
REMARK    3  A    between atoms: C8_12  and  O2_13
REMARK    4  A    between atoms: O2_13  and  C9_14
REMARK    5  A    between atoms: C9_14  and  C10_15
REMARK                            x       y       z     vdW  Elec       q    Type
REMARK                         _______ _______ _______ _____ _____    ______ ____
ROOT
ATOM      1  C4  T14     1     139.302  98.138 128.704  0.00  0.00    +0.243 A 
ATOM      2  N2  T14     1     139.399  99.521 128.606  0.00  0.00    -0.122 NA
ATOM      3  N3  T14     1     139.954  99.984 129.706  0.00  0.00    -0.127 NA
ATOM      4  C5  T14     1     140.186  98.883 130.453  0.00  0.00    +0.182 A 
ATOM      5  C6  T14     1     140.770  98.846 131.730  0.00  0.00    +0.010 A 
ATOM      6  C7  T14     1     140.932  97.599 132.361  0.00  0.00    +0.026 A 
ATOM      7  C8  T14     1     140.510  96.418 131.708  0.00  0.00    +0.237 A 
ATOM      8  N6  T14     1     139.947  96.475 130.476  0.00  0.00    -0.125 NA
ATOM      9  N7  T14     1     139.809  97.696 129.902  0.00  0.00    -0.185 N 
ATOM     10  C13 T14     1     141.578  97.687 133.742  0.00  0.00    +0.025 C 
ATOM     11  C14 T14     1     140.682  98.624 134.603  0.00  0.00    +0.009 C 
ATOM     12  C15 T14     1     140.500 100.008 133.897  0.00  0.00    +0.009 C 
ATOM     13  C16 T14     1     141.269 100.036 132.545  0.00  0.00    +0.023 C 
ATOM     14  C17 T14     1     142.771  99.774 132.851  0.00  0.00    +0.009 C 
ATOM     15  C18 T14     1     142.954  98.390 133.555  0.00  0.00    +0.009 C 
ENDROOT
BRANCH   1  20
ATOM     16  C1  T14     1     138.422  94.733 125.390  0.00  0.00    +0.091 C 
ATOM     17  C2  T14     1     138.319  95.952 126.264  0.00  0.00    +0.169 A 
ATOM     18  N1  T14     1     137.268  96.835 126.143  0.00  0.00    -0.061 NA
ATOM     19  O1  T14     1     137.606  97.766 127.122  0.00  0.00    -0.329 OA
ATOM     20  C3  T14     1     138.761  97.375 127.701  0.00  0.00    +0.298 A 
ATOM     21  N8  T14     1     139.223  96.256 127.186  0.00  0.00    -0.189 NA
ENDBRANCH   1  20
BRANCH   7  22
ATOM     22  O2  T14     1     140.680  95.210 132.348  0.00  0.00    -0.467 OA
BRANCH  22  23
ATOM     23  C9  T14     1     141.346  94.099 131.710  0.00  0.00    +0.304 C 
BRANCH  23  24
ATOM     24  C10 T14     1     142.581  94.571 130.986  0.00  0.00    +0.145 A 
ATOM     25  N4  T14     1     142.797  94.366 129.699  0.00  0.00    -0.237 NA
ATOM     26  C11 T14     1     144.014  94.943 129.432  0.00  0.00    +0.130 A 
ATOM     27  C12 T14     1     144.545  95.504 130.566  0.00  0.00    +0.104 A 
ATOM     28  N5  T14     1     143.625  95.265 131.560  0.00  0.00    -0.346 N 
ATOM     29  H1  T14     1     143.691  95.539 132.530  0.00  0.00    +0.167 HD
ENDBRANCH  23  24
ENDBRANCH  22  23
ENDBRANCH   7  22
TORSDOF 4
ENDMDL
MODEL 5
REMARK VINA RESULT:    -7.680      2.226      4.859
REMARK INTER + INTRA:         -10.133
REMARK INTER:                  -9.334
REMARK INTRA:                  -0.799
REMARK UNBOUND:                -0.656
REMARK  Name = ligands_pdb/TRN_CHEMBL334246.pdb
REMARK  5 active torsions:
REMARK  status: ('A' for Active; 'I' for Inactive)
REMARK    1  A    between atoms: C1_1  and  C2_2
REMARK    2  A    between atoms: C3_5  and  C4_6
REMARK    3  A    between atoms: C8_12  and  O2_13
REMARK    4  A    between atoms: O2_13  and  C9_14
REMARK    5  A    between atoms: C9_14  and  C10_15
REMARK                            x       y       z     vdW  Elec       q    Type
REMARK                         _______ _______ _______ _____ _____    ______ ____
ROOT
ATOM      1  C4  T14     1     141.678  98.298 134.204  0.00  0.00    +0.243 A 
ATOM      2  N2  T14     1     140.673  99.235 134.409  0.00  0.00    -0.122 NA
ATOM      3  N3  T14     1     140.279  99.693 133.239  0.00  0.00    -0.127 NA
ATOM      4  C5  T14     1     141.044  99.031 132.345  0.00  0.00    +0.182 A 
ATOM      5  C6  T14     1     141.006  99.167 130.948  0.00  0.00    +0.010 A 
ATOM      6  C7  T14     1     141.885  98.391 130.171  0.00  0.00    +0.026 A 
ATOM      7  C8  T14     1     142.780  97.496 130.801  0.00  0.00    +0.237 A 
ATOM      8  N6  T14     1     142.802  97.379 132.152  0.00  0.00    -0.125 NA
ATOM      9  N7  T14     1     141.939  98.146 132.864  0.00  0.00    -0.185 N 
ATOM     10  C13 T14     1     141.749  98.626 128.667  0.00  0.00    +0.025 C 
ATOM     11  C14 T14     1     141.996 100.143 128.422  0.00  0.00    +0.009 C 
ATOM     12  C15 T14     1     141.021 101.004 129.291  0.00  0.00    +0.009 C 
ATOM     13  C16 T14     1     140.095 100.088 130.142  0.00  0.00    +0.023 C 
ATOM     14  C17 T14     1     139.295  99.184 129.160  0.00  0.00    +0.009 C 
ATOM     15  C18 T14     1     140.269  98.322 128.292  0.00  0.00    +0.009 C 
ENDROOT
BRANCH   1  20
ATOM     16  C1  T14     1     142.687  96.158 138.418  0.00  0.00    +0.091 C 
ATOM     17  C2  T14     1     142.789  96.713 137.024  0.00  0.00    +0.169 A 
ATOM     18  N1  T14     1     143.960  96.630 136.303  0.00  0.00    -0.061 NA
ATOM     19  O1  T14     1     143.576  97.264 135.124  0.00  0.00    -0.329 OA
ATOM     20  C3  T14     1     142.287  97.646 135.246  0.00  0.00    +0.298 A 
ATOM     21  N8  T14     1     141.778  97.318 136.414  0.00  0.00    -0.189 NA
ENDBRANCH   1  20
BRANCH   7  22
ATOM     22  O2  T14     1     143.629  96.747 130.016  0.00  0.00    -0.467 OA
BRANCH  22  23
ATOM     23  C9  T14     1     145.053  96.985 129.994  0.00  0.00    +0.304 C 
BRANCH  23  24
ATOM     24  C10 T14     1     145.742  96.158 131.050  0.00  0.00    +0.145 A 
ATOM     25  N4  T14     1     146.317  94.995 130.806  0.00  0.00    -0.237 NA
ATOM     26  C11 T14     1     146.820  94.572 132.012  0.00  0.00    +0.130 A 
ATOM     27  C12 T14     1     146.549  95.487 132.999  0.00  0.00    +0.104 A 
ATOM     28  N5  T14     1     145.858  96.502 132.380  0.00  0.00    -0.346 N 
ATOM     29  H1  T14     1     145.499  97.344 132.807  0.00  0.00    +0.167 HD
ENDBRANCH  23  24
ENDBRANCH  22  23
ENDBRANCH   7  22
TORSDOF 4
ENDMDL
MODEL 6
REMARK VINA RESULT:    -7.609      2.689      6.418
REMARK INTER + INTRA:         -10.044
REMARK INTER:                  -9.380
REMARK INTRA:                  -0.665
REMARK UNBOUND:                -0.656
REMARK  Name = ligands_pdb/TRN_CHEMBL334246.pdb
REMARK  5 active torsions:
REMARK  status: ('A' for Active; 'I' for Inactive)
REMARK    1  A    between atoms: C1_1  and  C2_2
REMARK    2  A    between atoms: C3_5  and  C4_6
REMARK    3  A    between atoms: C8_12  and  O2_13
REMARK    4  A    between atoms: O2_13  and  C9_14
REMARK    5  A    between atoms: C9_14  and  C10_15
REMARK                            x       y       z     vdW  Elec       q    Type
REMARK                         _______ _______ _______ _____ _____    ______ ____
ROOT
ATOM      1  C4  T14     1     140.758  99.910 128.983  0.00  0.00    +0.243 A 
ATOM      2  N2  T14     1     140.858  99.783 127.603  0.00  0.00    -0.122 NA
ATOM      3  N3  T14     1     141.667  98.782 127.329  0.00  0.00    -0.127 NA
ATOM      4  C5  T14     1     142.046  98.316 128.538  0.00  0.00    +0.182 A 
ATOM      5  C6  T14     1     142.916  97.241 128.786  0.00  0.00    +0.010 A 
ATOM      6  C7  T14     1     143.198  96.896 130.121  0.00  0.00    +0.026 A 
ATOM      7  C8  T14     1     142.608  97.628 131.177  0.00  0.00    +0.237 A 
ATOM      8  N6  T14     1     141.771  98.663 130.918  0.00  0.00    -0.125 NA
ATOM      9  N7  T14     1     141.525  98.962 129.618  0.00  0.00    -0.185 N 
ATOM     10  C13 T14     1     144.154  95.713 130.262  0.00  0.00    +0.025 C 
ATOM     11  C14 T14     1     145.460  96.094 129.507  0.00  0.00    +0.009 C 
ATOM     12  C15 T14     1     145.144  96.481 128.025  0.00  0.00    +0.009 C 
ATOM     13  C16 T14     1     143.617  96.371 127.747  0.00  0.00    +0.023 C 
ATOM     14  C17 T14     1     143.191  94.902 128.029  0.00  0.00    +0.009 C 
ATOM     15  C18 T14     1     143.506  94.514 129.511  0.00  0.00    +0.009 C 
ENDROOT
BRANCH   1  20
ATOM     16  C1  T14     1     137.112 102.427 130.912  0.00  0.00    +0.091 C 
ATOM     17  C2  T14     1     138.467 102.009 130.411  0.00  0.00    +0.169 A 
ATOM     18  N1  T14     1     139.551 102.856 130.484  0.00  0.00    -0.061 NA
ATOM     19  O1  T14     1     140.537 102.055 129.913  0.00  0.00    -0.329 OA
ATOM     20  C3  T14     1     139.980 100.874 129.571  0.00  0.00    +0.298 A 
ATOM     21  N8  T14     1     138.700 100.822 129.867  0.00  0.00    -0.189 NA
ENDBRANCH   1  20
BRANCH   7  22
ATOM     22  O2  T14     1     142.900  97.269 132.475  0.00  0.00    -0.467 OA
BRANCH  22  23
ATOM     23  C9  T14     1     143.512  98.192 133.401  0.00  0.00    +0.304 C 
BRANCH  23  24
ATOM     24  C10 T14     1     143.310  97.726 134.820  0.00  0.00    +0.145 A 
ATOM     25  N4  T14     1     142.136  97.384 135.317  0.00  0.00    -0.237 NA
ATOM     26  C11 T14     1     142.376  97.025 136.620  0.00  0.00    +0.130 A 
ATOM     27  C12 T14     1     143.709  97.148 136.920  0.00  0.00    +0.104 A 
ATOM     28  N5  T14     1     144.306  97.597 135.765  0.00  0.00    -0.346 N 
ATOM     29  H1  T14     1     145.286  97.799 135.624  0.00  0.00    +0.167 HD
ENDBRANCH  23  24
ENDBRANCH  22  23
ENDBRANCH   7  22
TORSDOF 4
ENDMDL
MODEL 7
REMARK VINA RESULT:    -7.422      3.224      6.188
REMARK INTER + INTRA:          -9.814
REMARK INTER:                  -8.793
REMARK INTRA:                  -1.021
REMARK UNBOUND:                -0.656
REMARK  Name = ligands_pdb/TRN_CHEMBL334246.pdb
REMARK  5 active torsions:
REMARK  status: ('A' for Active; 'I' for Inactive)
REMARK    1  A    between atoms: C1_1  and  C2_2
REMARK    2  A    between atoms: C3_5  and  C4_6
REMARK    3  A    between atoms: C8_12  and  O2_13
REMARK    4  A    between atoms: O2_13  and  C9_14
REMARK    5  A    between atoms: C9_14  and  C10_15
REMARK                            x       y       z     vdW  Elec       q    Type
REMARK                         _______ _______ _______ _____ _____    ______ ____
ROOT
ATOM      1  C4  T14     1     143.742  94.743 130.300  0.00  0.00    +0.243 A 
ATOM      2  N2  T14     1     144.951  94.862 130.974  0.00  0.00    -0.122 NA
ATOM      3  N3  T14     1     144.824  95.778 131.910  0.00  0.00    -0.127 NA
ATOM      4  C5  T14     1     143.548  96.202 131.793  0.00  0.00    +0.182 A 
ATOM      5  C6  T14     1     142.917  97.185 132.574  0.00  0.00    +0.010 A 
ATOM      6  C7  T14     1     141.572  97.498 132.305  0.00  0.00    +0.026 A 
ATOM      7  C8  T14     1     140.886  96.827 131.268  0.00  0.00    +0.237 A 
ATOM      8  N6  T14     1     141.512  95.881 130.525  0.00  0.00    -0.125 NA
ATOM      9  N7  T14     1     142.808  95.609 130.816  0.00  0.00    -0.185 N 
ATOM     10  C13 T14     1     140.998  98.579 133.219  0.00  0.00    +0.025 C 
ATOM     11  C14 T14     1     141.898  99.839 133.053  0.00  0.00    +0.009 C 
ATOM     12  C15 T14     1     143.393  99.486 133.346  0.00  0.00    +0.009 C 
ATOM     13  C16 T14     1     143.536  97.982 133.718  0.00  0.00    +0.023 C 
ATOM     14  C17 T14     1     142.658  97.721 134.975  0.00  0.00    +0.009 C 
ATOM     15  C18 T14     1     141.162  98.072 134.682  0.00  0.00    +0.009 C 
ENDROOT
BRANCH   1  20
ATOM     16  C1  T14     1     143.922  92.432 126.060  0.00  0.00    +0.091 C 
ATOM     17  C2  T14     1     143.602  92.815 127.478  0.00  0.00    +0.169 A 
ATOM     18  N1  T14     1     142.755  92.054 128.253  0.00  0.00    -0.061 NA
ATOM     19  O1  T14     1     142.766  92.789 129.436  0.00  0.00    -0.329 OA
ATOM     20  C3  T14     1     143.570  93.860 129.265  0.00  0.00    +0.298 A 
ATOM     21  N8  T14     1     144.097  93.899 128.061  0.00  0.00    -0.189 NA
ENDBRANCH   1  20
BRANCH   7  22
ATOM     22  O2  T14     1     139.569  97.152 131.027  0.00  0.00    -0.467 OA
BRANCH  22  23
ATOM     23  C9  T14     1     139.163  97.844 129.826  0.00  0.00    +0.304 C 
BRANCH  23  24
ATOM     24  C10 T14     1     139.677  99.262 129.837  0.00  0.00    +0.145 A 
ATOM     25  N4  T14     1     140.741  99.658 129.164  0.00  0.00    -0.237 NA
ATOM     26  C11 T14     1     140.871 100.999 129.435  0.00  0.00    +0.130 A 
ATOM     27  C12 T14     1     139.877 101.422 130.281  0.00  0.00    +0.104 A 
ATOM     28  N5  T14     1     139.112 100.308 130.537  0.00  0.00    -0.346 N 
ATOM     29  H1  T14     1     138.292 100.252 131.124  0.00  0.00    +0.167 HD
ENDBRANCH  23  24
ENDBRANCH  22  23
ENDBRANCH   7  22
TORSDOF 4
ENDMDL
MODEL 8
REMARK VINA RESULT:    -7.409      2.508      4.788
REMARK INTER + INTRA:          -9.798
REMARK INTER:                  -9.154
REMARK INTRA:                  -0.644
REMARK UNBOUND:                -0.656
REMARK  Name = ligands_pdb/TRN_CHEMBL334246.pdb
REMARK  5 active torsions:
REMARK  status: ('A' for Active; 'I' for Inactive)
REMARK    1  A    between atoms: C1_1  and  C2_2
REMARK    2  A    between atoms: C3_5  and  C4_6
REMARK    3  A    between atoms: C8_12  and  O2_13
REMARK    4  A    between atoms: O2_13  and  C9_14
REMARK    5  A    between atoms: C9_14  and  C10_15
REMARK                            x       y       z     vdW  Elec       q    Type
REMARK                         _______ _______ _______ _____ _____    ______ ____
ROOT
ATOM      1  C4  T14     1     141.666  98.632 133.772  0.00  0.00    +0.243 A 
ATOM      2  N2  T14     1     141.253  99.943 133.973  0.00  0.00    -0.122 NA
ATOM      3  N3  T14     1     140.815 100.428 132.830  0.00  0.00    -0.127 NA
ATOM      4  C5  T14     1     140.967  99.411 131.955  0.00  0.00    +0.182 A 
ATOM      5  C6  T14     1     140.643  99.428 130.589  0.00  0.00    +0.010 A 
ATOM      6  C7  T14     1     140.873  98.267 129.827  0.00  0.00    +0.026 A 
ATOM      7  C8  T14     1     141.421  97.118 130.442  0.00  0.00    +0.237 A 
ATOM      8  N6  T14     1     141.729  97.122 131.763  0.00  0.00    -0.125 NA
ATOM      9  N7  T14     1     141.491  98.260 132.461  0.00  0.00    -0.185 N 
ATOM     10  C13 T14     1     140.480  98.407 128.358  0.00  0.00    +0.025 C 
ATOM     11  C14 T14     1     141.288  99.608 127.785  0.00  0.00    +0.009 C 
ATOM     12  C15 T14     1     141.033 100.895 128.636  0.00  0.00    +0.009 C 
ATOM     13  C16 T14     1     140.049 100.592 129.802  0.00  0.00    +0.023 C 
ATOM     14  C17 T14     1     138.719 100.081 129.176  0.00  0.00    +0.009 C 
ATOM     15  C18 T14     1     138.973  98.794 128.326  0.00  0.00    +0.009 C 
ENDROOT
BRANCH   1  20
ATOM     16  C1  T14     1     142.359  96.245 137.916  0.00  0.00    +0.091 C 
ATOM     17  C2  T14     1     142.537  96.817 136.537  0.00  0.00    +0.169 A 
ATOM     18  N1  T14     1     143.677  96.576 135.802  0.00  0.00    -0.061 NA
ATOM     19  O1  T14     1     143.389  97.294 134.644  0.00  0.00    -0.329 OA
ATOM     20  C3  T14     1     142.174  97.866 134.789  0.00  0.00    +0.298 A 
ATOM     21  N8  T14     1     141.628  97.587 135.953  0.00  0.00    -0.189 NA
ENDBRANCH   1  20
BRANCH   7  22
ATOM     22  O2  T14     1     141.636  95.995 129.674  0.00  0.00    -0.467 OA
BRANCH  22  23
ATOM     23  C9  T14     1     142.605  95.979 128.604  0.00  0.00    +0.304 C 
BRANCH  23  24
ATOM     24  C10 T14     1     143.909  96.577 129.066  0.00  0.00    +0.145 A 
ATOM     25  N4  T14     1     144.711  95.995 129.938  0.00  0.00    -0.237 NA
ATOM     26  C11 T14     1     145.776  96.850 130.089  0.00  0.00    +0.130 A 
ATOM     27  C12 T14     1     145.620  97.963 129.301  0.00  0.00    +0.104 A 
ATOM     28  N5  T14     1     144.424  97.786 128.646  0.00  0.00    -0.346 N 
ATOM     29  H1  T14     1     143.993  98.414 127.983  0.00  0.00    +0.167 HD
ENDBRANCH  23  24
ENDBRANCH  22  23
ENDBRANCH   7  22
TORSDOF 4
ENDMDL
MODEL 9
REMARK VINA RESULT:    -7.366      3.776      7.919
REMARK INTER + INTRA:          -9.745
REMARK INTER:                  -8.719
REMARK INTRA:                  -1.025
REMARK UNBOUND:                -0.656
REMARK  Name = ligands_pdb/TRN_CHEMBL334246.pdb
REMARK  5 active torsions:
REMARK  status: ('A' for Active; 'I' for Inactive)
REMARK    1  A    between atoms: C1_1  and  C2_2
REMARK    2  A    between atoms: C3_5  and  C4_6
REMARK    3  A    between atoms: C8_12  and  O2_13
REMARK    4  A    between atoms: O2_13  and  C9_14
REMARK    5  A    between atoms: C9_14  and  C10_15
REMARK                            x       y       z     vdW  Elec       q    Type
REMARK                         _______ _______ _______ _____ _____    ______ ____
ROOT
ATOM      1  C4  T14     1     140.101  97.235 128.583  0.00  0.00    +0.243 A 
ATOM      2  N2  T14     1     139.020  97.021 129.430  0.00  0.00    -0.122 NA
ATOM      3  N3  T14     1     139.394  97.279 130.665  0.00  0.00    -0.127 NA
ATOM      4  C5  T14     1     140.689  97.644 130.554  0.00  0.00    +0.182 A 
ATOM      5  C6  T14     1     141.545  98.020 131.602  0.00  0.00    +0.010 A 
ATOM      6  C7  T14     1     142.873  98.370 131.294  0.00  0.00    +0.026 A 
ATOM      7  C8  T14     1     143.318  98.339 129.953  0.00  0.00    +0.237 A 
ATOM      8  N6  T14     1     142.476  97.972 128.955  0.00  0.00    -0.125 NA
ATOM      9  N7  T14     1     141.205  97.643 129.294  0.00  0.00    -0.185 N 
ATOM     10  C13 T14     1     143.705  98.761 132.515  0.00  0.00    +0.025 C 
ATOM     11  C14 T14     1     143.670  97.551 133.493  0.00  0.00    +0.009 C 
ATOM     12  C15 T14     1     142.193  97.161 133.829  0.00  0.00    +0.009 C 
ATOM     13  C16 T14     1     141.198  98.098 133.086  0.00  0.00    +0.023 C 
ATOM     14  C17 T14     1     141.494  99.556 133.541  0.00  0.00    +0.009 C 
ATOM     15  C18 T14     1     142.970  99.947 133.204  0.00  0.00    +0.009 C 
ENDROOT
BRANCH   1  20
ATOM     16  C1  T14     1     139.759  95.346 124.149  0.00  0.00    +0.091 C 
ATOM     17  C2  T14     1     139.864  96.308 125.300  0.00  0.00    +0.169 A 
ATOM     18  N1  T14     1     139.916  97.669 125.095  0.00  0.00    -0.061 NA
ATOM     19  O1  T14     1     140.013  98.120 126.409  0.00  0.00    -0.329 OA
ATOM     20  C3  T14     1     140.012  97.046 127.228  0.00  0.00    +0.298 A 
ATOM     21  N8  T14     1     139.922  95.913 126.565  0.00  0.00    -0.189 NA
ENDBRANCH   1  20
BRANCH   7  22
ATOM     22  O2  T14     1     144.622  98.687 129.679  0.00  0.00    -0.467 OA
BRANCH  22  23
ATOM     23  C9  T14     1     145.543  97.764 129.060  0.00  0.00    +0.304 C 
BRANCH  23  24
ATOM     24  C10 T14     1     145.796  96.585 129.966  0.00  0.00    +0.145 A 
ATOM     25  N4  T14     1     145.484  95.342 129.652  0.00  0.00    -0.237 NA
ATOM     26  C11 T14     1     145.870  94.580 130.728  0.00  0.00    +0.130 A 
ATOM     27  C12 T14     1     146.423  95.368 131.706  0.00  0.00    +0.104 A 
ATOM     28  N5  T14     1     146.375  96.652 131.216  0.00  0.00    -0.346 N 
ATOM     29  H1  T14     1     146.697  97.493 131.675  0.00  0.00    +0.167 HD
ENDBRANCH  23  24
ENDBRANCH  22  23
ENDBRANCH   7  22
TORSDOF 4
ENDMDL
MODEL 10
REMARK VINA RESULT:    -7.305      3.555      7.586
REMARK INTER + INTRA:          -9.670
REMARK INTER:                  -8.737
REMARK INTRA:                  -0.933
REMARK UNBOUND:                -0.656
REMARK  Name = ligands_pdb/TRN_CHEMBL334246.pdb
REMARK  5 active torsions:
REMARK  status: ('A' for Active; 'I' for Inactive)
REMARK    1  A    between atoms: C1_1  and  C2_2
REMARK    2  A    between atoms: C3_5  and  C4_6
REMARK    3  A    between atoms: C8_12  and  O2_13
REMARK    4  A    between atoms: O2_13  and  C9_14
REMARK    5  A    between atoms: C9_14  and  C10_15
REMARK                            x       y       z     vdW  Elec       q    Type
REMARK                         _______ _______ _______ _____ _____    ______ ____
ROOT
ATOM      1  C4  T14     1     139.621  98.293 129.016  0.00  0.00    +0.243 A 
ATOM      2  N2  T14     1     139.172  99.531 129.459  0.00  0.00    -0.122 NA
ATOM      3  N3  T14     1     139.742  99.799 130.614  0.00  0.00    -0.127 NA
ATOM      4  C5  T14     1     140.526  98.727 130.858  0.00  0.00    +0.182 A 
ATOM      5  C6  T14     1     141.348  98.528 131.979  0.00  0.00    +0.010 A 
ATOM      6  C7  T14     1     142.098  97.341 132.063  0.00  0.00    +0.026 A 
ATOM      7  C8  T14     1     142.014  96.379 131.030  0.00  0.00    +0.237 A 
ATOM      8  N6  T14     1     141.214  96.589 129.956  0.00  0.00    -0.125 NA
ATOM      9  N7  T14     1     140.507  97.746 129.913  0.00  0.00    -0.185 N 
ATOM     10  C13 T14     1     142.952  97.241 133.325  0.00  0.00    +0.025 C 
ATOM     11  C14 T14     1     141.985  97.364 134.539  0.00  0.00    +0.009 C 
ATOM     12  C15 T14     1     141.148  98.682 134.440  0.00  0.00    +0.009 C 
ATOM     13  C16 T14     1     141.533  99.477 133.159  0.00  0.00    +0.023 C 
ATOM     14  C17 T14     1     143.052  99.801 133.243  0.00  0.00    +0.009 C 
ATOM     15  C18 T14     1     143.889  98.484 133.340  0.00  0.00    +0.009 C 
ENDROOT
BRANCH   1  20
ATOM     16  C1  T14     1     138.042  95.316 125.552  0.00  0.00    +0.091 C 
ATOM     17  C2  T14     1     138.521  96.530 126.300  0.00  0.00    +0.169 A 
ATOM     18  N1  T14     1     138.678  97.745 125.669  0.00  0.00    -0.061 NA
ATOM     19  O1  T14     1     139.130  98.525 126.731  0.00  0.00    -0.329 OA
ATOM     20  C3  T14     1     139.198  97.746 127.832  0.00  0.00    +0.298 A 
ATOM     21  N8  T14     1     138.828  96.507 127.590  0.00  0.00    -0.189 NA
ENDBRANCH   1  20
BRANCH   7  22
ATOM     22  O2  T14     1     142.760  95.226 131.137  0.00  0.00    -0.467 OA
BRANCH  22  23
ATOM     23  C9  T14     1     143.627  94.779 130.072  0.00  0.00    +0.304 C 
BRANCH  23  24
ATOM     24  C10 T14     1     144.648  95.839 129.745  0.00  0.00    +0.145 A 
ATOM     25  N4  T14     1     144.696  96.475 128.590  0.00  0.00    -0.237 NA
ATOM     26  C11 T14     1     145.753  97.346 128.691  0.00  0.00    +0.130 A 
ATOM     27  C12 T14     1     146.354  97.239 129.920  0.00  0.00    +0.104 A 
ATOM     28  N5  T14     1     145.644  96.273 130.594  0.00  0.00    -0.346 N 
ATOM     29  H1  T14     1     145.811  95.936 131.532  0.00  0.00    +0.167 HD
ENDBRANCH  23  24
ENDBRANCH  22  23
ENDBRANCH   7  22
TORSDOF 4
ENDMDL
