MODEL 1
REMARK VINA RESULT:    -7.414      0.000      0.000
REMARK INTER + INTRA:         -10.246
REMARK INTER:                  -9.581
REMARK INTRA:                  -0.664
REMARK UNBOUND:                -0.664
REMARK  Name = ligands_pdb/TRN_CHEMBL522055.pdb
REMARK  6 active torsions:
REMARK  status: ('A' for Active; 'I' for Inactive)
REMARK    1  A    between atoms: C2_2  and  C3_3
REMARK    2  A    between atoms: C9_9  and  C10_10
REMARK    3  A    between atoms: C18_19  and  C19_20
REMARK    4  A    between atoms: C19_20  and  O2_22
REMARK    5  A    between atoms: O2_22  and  C20_23
REMARK    6  A    between atoms: C20_23  and  C21_24
REMARK                            x       y       z     vdW  Elec       q    Type
REMARK                         _______ _______ _______ _____ _____    ______ ____
ROOT
ATOM      1  C3  T21     1     142.913  97.285 136.132  0.00  0.00    +0.025 A 
ATOM      2  C4  T21     1     141.561  97.628 135.969  0.00  0.00    +0.019 A 
ATOM      3  C5  T21     1     141.083  98.003 134.704  0.00  0.00    +0.028 A 
ATOM      4  C6  T21     1     141.952  98.038 133.599  0.00  0.00    +0.053 A 
ATOM      5  C7  T21     1     143.317  97.692 133.752  0.00  0.00    +0.006 A 
ATOM      6  C8  T21     1     143.782  97.320 135.030  0.00  0.00    +0.024 A 
ATOM      7  C9  T21     1     144.280  97.701 132.610  0.00  0.00    +0.116 C 
ATOM      8  N1  T21     1     144.447  98.743 131.855  0.00  0.00    -0.216 NA
ATOM      9  C16 T21     1     143.486  99.859 131.806  0.00  0.00    +0.160 C 
ATOM     10  C17 T21     1     142.088  99.326 131.600  0.00  0.00    +0.073 A 
ATOM     11  C18 T21     1     141.174  99.659 130.535  0.00  0.00    +0.170 A 
ATOM     12  N2  T21     1     140.028  98.972 130.699  0.00  0.00    -0.228 NA
ATOM     13  C22 T21     1     140.188  98.241 131.791  0.00  0.00    +0.205 A 
ATOM     14  N3  T21     1     141.435  98.413 132.360  0.00  0.00    -0.300 N 
ENDROOT
BRANCH   7  15
ATOM     15  C10 T21     1     145.156  96.509 132.424  0.00  0.00    -0.019 A 
ATOM     16  C11 T21     1     145.068  95.732 131.250  0.00  0.00    +0.006 A 
ATOM     17  C12 T21     1     145.893  94.609 131.070  0.00  0.00    +0.000 A 
ATOM     18  C13 T21     1     146.819  94.251 132.062  0.00  0.00    +0.000 A 
ATOM     19  C14 T21     1     146.922  95.020 133.231  0.00  0.00    +0.000 A 
ATOM     20  C15 T21     1     146.096  96.143 133.411  0.00  0.00    +0.006 A 
ENDBRANCH   7  15
BRANCH   1  22
ATOM     21  C1  T21     1     143.815  96.574 138.521  0.00  0.00    +0.009 C 
ATOM     22  C2  T21     1     143.406  96.901 137.424  0.00  0.00    -0.070 C 
ENDBRANCH   1  22
BRANCH  11  23
ATOM     23  C19 T21     1     141.391 100.611 129.416  0.00  0.00    +0.360 C 
ATOM     24  O1  T21     1     140.777 101.656 129.277  0.00  0.00    -0.243 OA
BRANCH  23  25
ATOM     25  O2  T21     1     142.348 100.204 128.524  0.00  0.00    -0.460 OA
BRANCH  25  26
ATOM     26  C20 T21     1     142.321  98.861 128.009  0.00  0.00    +0.229 C 
ATOM     27  C21 T21     1     143.639  98.173 128.405  0.00  0.00    +0.048 C 
ENDBRANCH  25  26
ENDBRANCH  23  25
ENDBRANCH  11  23
TORSDOF 5
ENDMDL
MODEL 2
REMARK VINA RESULT:    -7.132      1.770      4.803
REMARK INTER + INTRA:          -9.881
REMARK INTER:                  -8.790
REMARK INTRA:                  -1.091
REMARK UNBOUND:                -0.664
REMARK  Name = ligands_pdb/TRN_CHEMBL522055.pdb
REMARK  6 active torsions:
REMARK  status: ('A' for Active; 'I' for Inactive)
REMARK    1  A    between atoms: C2_2  and  C3_3
REMARK    2  A    between atoms: C9_9  and  C10_10
REMARK    3  A    between atoms: C18_19  and  C19_20
REMARK    4  A    between atoms: C19_20  and  O2_22
REMARK    5  A    between atoms: O2_22  and  C20_23
REMARK    6  A    between atoms: C20_23  and  C21_24
REMARK                            x       y       z     vdW  Elec       q    Type
REMARK                         _______ _______ _______ _____ _____    ______ ____
ROOT
ATOM      1  C3  T21     1     146.912  95.017 131.397  0.00  0.00    +0.025 A 
ATOM      2  C4  T21     1     147.286  95.735 130.250  0.00  0.00    +0.019 A 
ATOM      3  C5  T21     1     146.451  96.748 129.755  0.00  0.00    +0.028 A 
ATOM      4  C6  T21     1     145.240  97.049 130.405  0.00  0.00    +0.053 A 
ATOM      5  C7  T21     1     144.854  96.332 131.564  0.00  0.00    +0.006 A 
ATOM      6  C8  T21     1     145.702  95.315 132.046  0.00  0.00    +0.024 A 
ATOM      7  C9  T21     1     143.584  96.618 132.298  0.00  0.00    +0.116 C 
ATOM      8  N1  T21     1     142.430  96.627 131.706  0.00  0.00    -0.216 NA
ATOM      9  C16 T21     1     142.282  96.719 130.243  0.00  0.00    +0.160 C 
ATOM     10  C17 T21     1     143.112  97.864 129.712  0.00  0.00    +0.073 A 
ATOM     11  C18 T21     1     142.652  98.993 128.939  0.00  0.00    +0.170 A 
ATOM     12  N2  T21     1     143.695  99.798 128.662  0.00  0.00    -0.228 NA
ATOM     13  C22 T21     1     144.755  99.235 129.218  0.00  0.00    +0.205 A 
ATOM     14  N3  T21     1     144.441  98.065 129.882  0.00  0.00    -0.300 N 
ENDROOT
BRANCH   7  15
ATOM     15  C10 T21     1     143.653  96.774 133.780  0.00  0.00    -0.019 A 
ATOM     16  C11 T21     1     144.468  97.769 134.358  0.00  0.00    +0.006 A 
ATOM     17  C12 T21     1     144.534  97.921 135.752  0.00  0.00    +0.000 A 
ATOM     18  C13 T21     1     143.782  97.081 136.587  0.00  0.00    +0.000 A 
ATOM     19  C14 T21     1     142.961  96.092 136.025  0.00  0.00    +0.000 A 
ATOM     20  C15 T21     1     142.896  95.940 134.630  0.00  0.00    +0.006 A 
ENDBRANCH   7  15
BRANCH   1  22
ATOM     21  C1  T21     1     148.477  93.097 132.340  0.00  0.00    +0.009 C 
ATOM     22  C2  T21     1     147.763  93.980 131.905  0.00  0.00    -0.070 C 
ENDBRANCH   1  22
BRANCH  11  23
ATOM     23  C19 T21     1     141.270  99.274 128.477  0.00  0.00    +0.360 C 
ATOM     24  O1  T21     1     140.931  99.298 127.304  0.00  0.00    -0.243 OA
BRANCH  23  25
ATOM     25  O2  T21     1     140.387  99.524 129.495  0.00  0.00    -0.460 OA
BRANCH  25  26
ATOM     26  C20 T21     1     140.671 100.563 130.448  0.00  0.00    +0.229 C 
ATOM     27  C21 T21     1     140.693  99.929 131.850  0.00  0.00    +0.048 C 
ENDBRANCH  25  26
ENDBRANCH  23  25
ENDBRANCH  11  23
TORSDOF 5
ENDMDL
MODEL 3
REMARK VINA RESULT:    -6.856      1.907      4.697
REMARK INTER + INTRA:          -9.524
REMARK INTER:                  -8.521
REMARK INTRA:                  -1.003
REMARK UNBOUND:                -0.664
REMARK  Name = ligands_pdb/TRN_CHEMBL522055.pdb
REMARK  6 active torsions:
REMARK  status: ('A' for Active; 'I' for Inactive)
REMARK    1  A    between atoms: C2_2  and  C3_3
REMARK    2  A    between atoms: C9_9  and  C10_10
REMARK    3  A    between atoms: C18_19  and  C19_20
REMARK    4  A    between atoms: C19_20  and  O2_22
REMARK    5  A    between atoms: O2_22  and  C20_23
REMARK    6  A    between atoms: C20_23  and  C21_24
REMARK                            x       y       z     vdW  Elec       q    Type
REMARK                         _______ _______ _______ _____ _____    ______ ____
ROOT
ATOM      1  C3  T21     1     146.661  94.986 131.224  0.00  0.00    +0.025 A 
ATOM      2  C4  T21     1     146.999  95.688 130.057  0.00  0.00    +0.019 A 
ATOM      3  C5  T21     1     146.163  96.713 129.589  0.00  0.00    +0.028 A 
ATOM      4  C6  T21     1     144.984  97.040 130.285  0.00  0.00    +0.053 A 
ATOM      5  C7  T21     1     144.634  96.339 131.465  0.00  0.00    +0.006 A 
ATOM      6  C8  T21     1     145.484  95.311 131.920  0.00  0.00    +0.024 A 
ATOM      7  C9  T21     1     143.401  96.652 132.248  0.00  0.00    +0.116 C 
ATOM      8  N1  T21     1     142.224  96.677 131.703  0.00  0.00    -0.216 NA
ATOM      9  C16 T21     1     142.017  96.761 130.247  0.00  0.00    +0.160 C 
ATOM     10  C17 T21     1     142.844  97.887 129.673  0.00  0.00    +0.073 A 
ATOM     11  C18 T21     1     142.373  99.017 128.910  0.00  0.00    +0.170 A 
ATOM     12  N2  T21     1     143.417  99.802 128.584  0.00  0.00    -0.228 NA
ATOM     13  C22 T21     1     144.490  99.224 129.101  0.00  0.00    +0.205 A 
ATOM     14  N3  T21     1     144.183  98.065 129.787  0.00  0.00    -0.300 N 
ENDROOT
BRANCH   7  15
ATOM     15  C10 T21     1     143.534  96.818 133.724  0.00  0.00    -0.019 A 
ATOM     16  C11 T21     1     142.795  96.002 134.606  0.00  0.00    +0.006 A 
ATOM     17  C12 T21     1     142.919  96.153 135.997  0.00  0.00    +0.000 A 
ATOM     18  C13 T21     1     143.788  97.122 136.523  0.00  0.00    +0.000 A 
ATOM     19  C14 T21     1     144.534  97.934 135.657  0.00  0.00    +0.000 A 
ATOM     20  C15 T21     1     144.409  97.783 134.266  0.00  0.00    +0.006 A 
ENDBRANCH   7  15
BRANCH   1  22
ATOM     21  C1  T21     1     148.230  93.043 132.112  0.00  0.00    +0.009 C 
ATOM     22  C2  T21     1     147.514  93.938 131.706  0.00  0.00    -0.070 C 
ENDBRANCH   1  22
BRANCH  11  23
ATOM     23  C19 T21     1     140.978  99.319 128.503  0.00  0.00    +0.360 C 
ATOM     24  O1  T21     1     140.136  99.801 129.243  0.00  0.00    -0.243 OA
BRANCH  23  25
ATOM     25  O2  T21     1     140.700  98.992 127.201  0.00  0.00    -0.460 OA
BRANCH  25  26
ATOM     26  C20 T21     1     140.679  97.611 126.800  0.00  0.00    +0.229 C 
ATOM     27  C21 T21     1     139.445  96.949 127.439  0.00  0.00    +0.048 C 
ENDBRANCH  25  26
ENDBRANCH  23  25
ENDBRANCH  11  23
TORSDOF 5
ENDMDL
MODEL 4
REMARK VINA RESULT:    -6.808      3.744      8.388
REMARK INTER + INTRA:          -9.462
REMARK INTER:                  -8.600
REMARK INTRA:                  -0.862
REMARK UNBOUND:                -0.664
REMARK  Name = ligands_pdb/TRN_CHEMBL522055.pdb
REMARK  6 active torsions:
REMARK  status: ('A' for Active; 'I' for Inactive)
REMARK    1  A    between atoms: C2_2  and  C3_3
REMARK    2  A    between atoms: C9_9  and  C10_10
REMARK    3  A    between atoms: C18_19  and  C19_20
REMARK    4  A    between atoms: C19_20  and  O2_22
REMARK    5  A    between atoms: O2_22  and  C20_23
REMARK    6  A    between atoms: C20_23  and  C21_24
REMARK                            x       y       z     vdW  Elec       q    Type
REMARK                         _______ _______ _______ _____ _____    ______ ____
ROOT
ATOM      1  C3  T21     1     142.520  95.677 124.636  0.00  0.00    +0.025 A 
ATOM      2  C4  T21     1     143.580  95.157 125.395  0.00  0.00    +0.019 A 
ATOM      3  C5  T21     1     143.764  95.579 126.721  0.00  0.00    +0.028 A 
ATOM      4  C6  T21     1     142.890  96.521 127.293  0.00  0.00    +0.053 A 
ATOM      5  C7  T21     1     141.816  97.050 126.536  0.00  0.00    +0.006 A 
ATOM      6  C8  T21     1     141.647  96.618 125.205  0.00  0.00    +0.024 A 
ATOM      7  C9  T21     1     140.852  98.045 127.098  0.00  0.00    +0.116 C 
ATOM      8  N1  T21     1     141.243  99.153 127.646  0.00  0.00    -0.216 NA
ATOM      9  C16 T21     1     142.629  99.381 128.091  0.00  0.00    +0.160 C 
ATOM     10  C17 T21     1     143.093  98.225 128.945  0.00  0.00    +0.073 A 
ATOM     11  C18 T21     1     143.589  98.281 130.299  0.00  0.00    +0.170 A 
ATOM     12  N2  T21     1     143.895  97.038 130.714  0.00  0.00    -0.228 NA
ATOM     13  C22 T21     1     143.613  96.231 129.704  0.00  0.00    +0.205 A 
ATOM     14  N3  T21     1     143.106  96.911 128.614  0.00  0.00    -0.300 N 
ENDROOT
BRANCH   7  15
ATOM     15  C10 T21     1     139.395  97.793 126.903  0.00  0.00    -0.019 A 
ATOM     16  C11 T21     1     138.564  98.788 126.348  0.00  0.00    +0.006 A 
ATOM     17  C12 T21     1     137.192  98.554 126.160  0.00  0.00    +0.000 A 
ATOM     18  C13 T21     1     136.634  97.318 126.523  0.00  0.00    +0.000 A 
ATOM     19  C14 T21     1     137.451  96.317 127.069  0.00  0.00    +0.000 A 
ATOM     20  C15 T21     1     138.823  96.552 127.256  0.00  0.00    +0.006 A 
ENDBRANCH   7  15
BRANCH   1  22
ATOM     21  C1  T21     1     142.177  94.882 122.131  0.00  0.00    +0.009 C 
ATOM     22  C2  T21     1     142.330  95.248 123.280  0.00  0.00    -0.070 C 
ENDBRANCH   1  22
BRANCH  11  23
ATOM     23  C19 T21     1     143.773  99.485 131.148  0.00  0.00    +0.360 C 
ATOM     24  O1  T21     1     144.828 100.089 131.262  0.00  0.00    -0.243 OA
BRANCH  23  25
ATOM     25  O2  T21     1     142.641  99.864 131.822  0.00  0.00    -0.460 OA
BRANCH  25  26
ATOM     26  C20 T21     1     142.465  99.475 133.196  0.00  0.00    +0.229 C 
ATOM     27  C21 T21     1     141.028  99.838 133.612  0.00  0.00    +0.048 C 
ENDBRANCH  25  26
ENDBRANCH  23  25
ENDBRANCH  11  23
TORSDOF 5
ENDMDL
MODEL 5
REMARK VINA RESULT:    -6.780      3.332      6.306
REMARK INTER + INTRA:          -9.426
REMARK INTER:                  -8.569
REMARK INTRA:                  -0.856
REMARK UNBOUND:                -0.664
REMARK  Name = ligands_pdb/TRN_CHEMBL522055.pdb
REMARK  6 active torsions:
REMARK  status: ('A' for Active; 'I' for Inactive)
REMARK    1  A    between atoms: C2_2  and  C3_3
REMARK    2  A    between atoms: C9_9  and  C10_10
REMARK    3  A    between atoms: C18_19  and  C19_20
REMARK    4  A    between atoms: C19_20  and  O2_22
REMARK    5  A    between atoms: O2_22  and  C20_23
REMARK    6  A    between atoms: C20_23  and  C21_24
REMARK                            x       y       z     vdW  Elec       q    Type
REMARK                         _______ _______ _______ _____ _____    ______ ____
ROOT
ATOM      1  C3  T21     1     139.476  97.168 129.211  0.00  0.00    +0.025 A 
ATOM      2  C4  T21     1     139.205  98.261 130.049  0.00  0.00    +0.019 A 
ATOM      3  C5  T21     1     140.103  98.597 131.073  0.00  0.00    +0.028 A 
ATOM      4  C6  T21     1     141.276  97.843 131.264  0.00  0.00    +0.053 A 
ATOM      5  C7  T21     1     141.560  96.740 130.422  0.00  0.00    +0.006 A 
ATOM      6  C8  T21     1     140.646  96.414 129.400  0.00  0.00    +0.024 A 
ATOM      7  C9  T21     1     142.795  95.912 130.574  0.00  0.00    +0.116 C 
ATOM      8  N1  T21     1     143.125  95.362 131.702  0.00  0.00    -0.216 NA
ATOM      9  C16 T21     1     142.546  95.774 132.992  0.00  0.00    +0.160 C 
ATOM     10  C17 T21     1     142.629  97.275 133.139  0.00  0.00    +0.073 A 
ATOM     11  C18 T21     1     143.269  98.015 134.199  0.00  0.00    +0.170 A 
ATOM     12  N2  T21     1     143.131  99.334 133.969  0.00  0.00    -0.228 NA
ATOM     13  C22 T21     1     142.452  99.443 132.838  0.00  0.00    +0.205 A 
ATOM     14  N3  T21     1     142.142  98.212 132.291  0.00  0.00    -0.300 N 
ENDROOT
BRANCH   7  15
ATOM     15  C10 T21     1     143.596  95.621 129.350  0.00  0.00    -0.019 A 
ATOM     16  C11 T21     1     144.342  96.640 128.723  0.00  0.00    +0.006 A 
ATOM     17  C12 T21     1     145.099  96.370 127.571  0.00  0.00    +0.000 A 
ATOM     18  C13 T21     1     145.123  95.073 127.035  0.00  0.00    +0.000 A 
ATOM     19  C14 T21     1     144.392  94.049 127.653  0.00  0.00    +0.000 A 
ATOM     20  C15 T21     1     143.634  94.320 128.805  0.00  0.00    +0.006 A 
ENDBRANCH   7  15
BRANCH   1  22
ATOM     21  C1  T21     1     137.790  96.521 127.271  0.00  0.00    +0.009 C 
ATOM     22  C2  T21     1     138.560  96.821 128.163  0.00  0.00    -0.070 C 
ENDBRANCH   1  22
BRANCH  11  23
ATOM     23  C19 T21     1     143.971  97.473 135.390  0.00  0.00    +0.360 C 
ATOM     24  O1  T21     1     145.123  97.745 135.690  0.00  0.00    -0.243 OA
BRANCH  23  25
ATOM     25  O2  T21     1     143.210  96.611 136.135  0.00  0.00    -0.460 OA
BRANCH  25  26
ATOM     26  C20 T21     1     142.331  97.128 137.149  0.00  0.00    +0.229 C 
ATOM     27  C21 T21     1     142.590  96.345 138.448  0.00  0.00    +0.048 C 
ENDBRANCH  25  26
ENDBRANCH  23  25
ENDBRANCH  11  23
TORSDOF 5
ENDMDL
MODEL 6
REMARK VINA RESULT:    -6.751      2.248      2.880
REMARK INTER + INTRA:          -9.389
REMARK INTER:                  -8.505
REMARK INTRA:                  -0.884
REMARK UNBOUND:                -0.664
REMARK  Name = ligands_pdb/TRN_CHEMBL522055.pdb
REMARK  6 active torsions:
REMARK  status: ('A' for Active; 'I' for Inactive)
REMARK    1  A    between atoms: C2_2  and  C3_3
REMARK    2  A    between atoms: C9_9  and  C10_10
REMARK    3  A    between atoms: C18_19  and  C19_20
REMARK    4  A    between atoms: C19_20  and  O2_22
REMARK    5  A    between atoms: O2_22  and  C20_23
REMARK    6  A    between atoms: C20_23  and  C21_24
REMARK                            x       y       z     vdW  Elec       q    Type
REMARK                         _______ _______ _______ _____ _____    ______ ____
ROOT
ATOM      1  C3  T21     1     143.270  98.021 133.997  0.00  0.00    +0.025 A 
ATOM      2  C4  T21     1     141.874  98.137 134.089  0.00  0.00    +0.019 A 
ATOM      3  C5  T21     1     141.097  98.192 132.922  0.00  0.00    +0.028 A 
ATOM      4  C6  T21     1     141.712  98.130 131.658  0.00  0.00    +0.053 A 
ATOM      5  C7  T21     1     143.119  98.011 131.553  0.00  0.00    +0.006 A 
ATOM      6  C8  T21     1     143.885  97.960 132.735  0.00  0.00    +0.024 A 
ATOM      7  C9  T21     1     143.822  97.931 130.236  0.00  0.00    +0.116 C 
ATOM      8  N1  T21     1     143.651  98.819 129.307  0.00  0.00    -0.216 NA
ATOM      9  C16 T21     1     142.519  99.762 129.298  0.00  0.00    +0.160 C 
ATOM     10  C17 T21     1     141.223  99.013 129.500  0.00  0.00    +0.073 A 
ATOM     11  C18 T21     1     140.073  99.006 128.630  0.00  0.00    +0.170 A 
ATOM     12  N2  T21     1     139.120  98.213 129.156  0.00  0.00    -0.228 NA
ATOM     13  C22 T21     1     139.618  97.736 130.286  0.00  0.00    +0.205 A 
ATOM     14  N3  T21     1     140.903  98.185 130.524  0.00  0.00    -0.300 N 
ENDROOT
BRANCH   7  15
ATOM     15  C10 T21     1     144.839  96.856 130.051  0.00  0.00    -0.019 A 
ATOM     16  C11 T21     1     144.477  95.498 130.181  0.00  0.00    +0.006 A 
ATOM     17  C12 T21     1     145.431  94.483 130.005  0.00  0.00    +0.000 A 
ATOM     18  C13 T21     1     146.760  94.813 129.692  0.00  0.00    +0.000 A 
ATOM     19  C14 T21     1     147.130  96.158 129.553  0.00  0.00    +0.000 A 
ATOM     20  C15 T21     1     146.175  97.174 129.730  0.00  0.00    +0.006 A 
ENDBRANCH   7  15
BRANCH   1  22
ATOM     21  C1  T21     1     144.740  97.910 136.199  0.00  0.00    +0.009 C 
ATOM     22  C2  T21     1     144.067  97.966 135.188  0.00  0.00    -0.070 C 
ENDBRANCH   1  22
BRANCH  11  23
ATOM     23  C19 T21     1     139.895  99.743 127.354  0.00  0.00    +0.360 C 
ATOM     24  O1  T21     1     140.096 100.939 127.220  0.00  0.00    -0.243 OA
BRANCH  23  25
ATOM     25  O2  T21     1     139.463  98.957 126.317  0.00  0.00    -0.460 OA
BRANCH  25  26
ATOM     26  C20 T21     1     138.259  99.305 125.611  0.00  0.00    +0.229 C 
ATOM     27  C21 T21     1     137.095  98.518 126.241  0.00  0.00    +0.048 C 
ENDBRANCH  25  26
ENDBRANCH  23  25
ENDBRANCH  11  23
TORSDOF 5
ENDMDL
MODEL 7
REMARK VINA RESULT:    -6.719      3.406      7.540
REMARK INTER + INTRA:          -9.348
REMARK INTER:                  -8.366
REMARK INTRA:                  -0.982
REMARK UNBOUND:                -0.664
REMARK  Name = ligands_pdb/TRN_CHEMBL522055.pdb
REMARK  6 active torsions:
REMARK  status: ('A' for Active; 'I' for Inactive)
REMARK    1  A    between atoms: C2_2  and  C3_3
REMARK    2  A    between atoms: C9_9  and  C10_10
REMARK    3  A    between atoms: C18_19  and  C19_20
REMARK    4  A    between atoms: C19_20  and  O2_22
REMARK    5  A    between atoms: O2_22  and  C20_23
REMARK    6  A    between atoms: C20_23  and  C21_24
REMARK                            x       y       z     vdW  Elec       q    Type
REMARK                         _______ _______ _______ _____ _____    ______ ____
ROOT
ATOM      1  C3  T21     1     143.315  95.541 126.957  0.00  0.00    +0.025 A 
ATOM      2  C4  T21     1     143.828  94.720 127.974  0.00  0.00    +0.019 A 
ATOM      3  C5  T21     1     143.391  94.888 129.297  0.00  0.00    +0.028 A 
ATOM      4  C6  T21     1     142.440  95.877 129.609  0.00  0.00    +0.053 A 
ATOM      5  C7  T21     1     141.915  96.709 128.590  0.00  0.00    +0.006 A 
ATOM      6  C8  T21     1     142.366  96.529 127.267  0.00  0.00    +0.024 A 
ATOM      7  C9  T21     1     140.896  97.767 128.865  0.00  0.00    +0.116 C 
ATOM      8  N1  T21     1     141.076  98.684 129.764  0.00  0.00    -0.216 NA
ATOM      9  C16 T21     1     142.092  98.575 130.825  0.00  0.00    +0.160 C 
ATOM     10  C17 T21     1     141.981  97.234 131.511  0.00  0.00    +0.073 A 
ATOM     11  C18 T21     1     141.769  96.986 132.916  0.00  0.00    +0.170 A 
ATOM     12  N2  T21     1     141.722  95.658 133.133  0.00  0.00    -0.228 NA
ATOM     13  C22 T21     1     141.888  95.085 131.951  0.00  0.00    +0.205 A 
ATOM     14  N3  T21     1     142.031  96.009 130.934  0.00  0.00    -0.300 N 
ENDROOT
BRANCH   7  15
ATOM     15  C10 T21     1     139.695  97.826 127.982  0.00  0.00    -0.019 A 
ATOM     16  C11 T21     1     138.788  96.747 127.933  0.00  0.00    +0.006 A 
ATOM     17  C12 T21     1     137.655  96.799 127.105  0.00  0.00    +0.000 A 
ATOM     18  C13 T21     1     137.412  97.936 126.318  0.00  0.00    +0.000 A 
ATOM     19  C14 T21     1     138.301  99.020 126.364  0.00  0.00    +0.000 A 
ATOM     20  C15 T21     1     139.435  98.966 127.192  0.00  0.00    +0.006 A 
ENDBRANCH   7  15
BRANCH   1  22
ATOM     21  C1  T21     1     144.138  95.219 124.458  0.00  0.00    +0.009 C 
ATOM     22  C2  T21     1     143.760  95.372 125.604  0.00  0.00    -0.070 C 
ENDBRANCH   1  22
BRANCH  11  23
ATOM     23  C19 T21     1     141.633  97.986 134.005  0.00  0.00    +0.360 C 
ATOM     24  O1  T21     1     140.580  98.255 134.561  0.00  0.00    -0.243 OA
BRANCH  23  25
ATOM     25  O2  T21     1     142.808  98.609 134.333  0.00  0.00    -0.460 OA
BRANCH  25  26
ATOM     26  C20 T21     1     143.964  97.821 134.671  0.00  0.00    +0.229 C 
ATOM     27  C21 T21     1     143.723  97.195 136.056  0.00  0.00    +0.048 C 
ENDBRANCH  25  26
ENDBRANCH  23  25
ENDBRANCH  11  23
TORSDOF 5
ENDMDL
MODEL 8
REMARK VINA RESULT:    -6.621      3.554      7.222
REMARK INTER + INTRA:          -9.220
REMARK INTER:                  -8.287
REMARK INTRA:                  -0.933
REMARK UNBOUND:                -0.664
REMARK  Name = ligands_pdb/TRN_CHEMBL522055.pdb
REMARK  6 active torsions:
REMARK  status: ('A' for Active; 'I' for Inactive)
REMARK    1  A    between atoms: C2_2  and  C3_3
REMARK    2  A    between atoms: C9_9  and  C10_10
REMARK    3  A    between atoms: C18_19  and  C19_20
REMARK    4  A    between atoms: C19_20  and  O2_22
REMARK    5  A    between atoms: O2_22  and  C20_23
REMARK    6  A    between atoms: C20_23  and  C21_24
REMARK                            x       y       z     vdW  Elec       q    Type
REMARK                         _______ _______ _______ _____ _____    ______ ____
ROOT
ATOM      1  C3  T21     1     139.708 100.659 130.234  0.00  0.00    +0.025 A 
ATOM      2  C4  T21     1     141.018 101.102 130.473  0.00  0.00    +0.019 A 
ATOM      3  C5  T21     1     142.099 100.228 130.281  0.00  0.00    +0.028 A 
ATOM      4  C6  T21     1     141.875  98.908 129.849  0.00  0.00    +0.053 A 
ATOM      5  C7  T21     1     140.557  98.451 129.603  0.00  0.00    +0.006 A 
ATOM      6  C8  T21     1     139.483  99.341 129.804  0.00  0.00    +0.024 A 
ATOM      7  C9  T21     1     140.264  97.063 129.133  0.00  0.00    +0.116 C 
ATOM      8  N1  T21     1     140.699  96.014 129.760  0.00  0.00    -0.216 NA
ATOM      9  C16 T21     1     141.789  96.068 130.750  0.00  0.00    +0.160 C 
ATOM     10  C17 T21     1     142.969  96.818 130.177  0.00  0.00    +0.073 A 
ATOM     11  C18 T21     1     144.322  96.338 130.029  0.00  0.00    +0.170 A 
ATOM     12  N2  T21     1     145.078  97.302 129.472  0.00  0.00    -0.228 NA
ATOM     13  C22 T21     1     144.274  98.333 129.269  0.00  0.00    +0.205 A 
ATOM     14  N3  T21     1     142.977  98.074 129.668  0.00  0.00    -0.300 N 
ENDROOT
BRANCH   7  15
ATOM     15  C10 T21     1     139.340  96.898 127.974  0.00  0.00    -0.019 A 
ATOM     16  C11 T21     1     138.030  96.411 128.167  0.00  0.00    +0.006 A 
ATOM     17  C12 T21     1     137.155  96.256 127.079  0.00  0.00    +0.000 A 
ATOM     18  C13 T21     1     137.579  96.592 125.784  0.00  0.00    +0.000 A 
ATOM     19  C14 T21     1     138.876  97.085 125.580  0.00  0.00    +0.000 A 
ATOM     20  C15 T21     1     139.751  97.239 126.668  0.00  0.00    +0.006 A 
ENDBRANCH   7  15
BRANCH   1  22
ATOM     21  C1  T21     1     137.660 102.303 130.588  0.00  0.00    +0.009 C 
ATOM     22  C2  T21     1     138.601 101.549 130.431  0.00  0.00    -0.070 C 
ENDBRANCH   1  22
BRANCH  11  23
ATOM     23  C19 T21     1     144.863  95.013 130.422  0.00  0.00    +0.360 C 
ATOM     24  O1  T21     1     144.541  93.958 129.899  0.00  0.00    -0.243 OA
BRANCH  23  25
ATOM     25  O2  T21     1     145.763  95.068 131.454  0.00  0.00    -0.460 OA
BRANCH  25  26
ATOM     26  C20 T21     1     145.411  95.744 132.674  0.00  0.00    +0.229 C 
ATOM     27  C21 T21     1     146.648  95.751 133.589  0.00  0.00    +0.048 C 
ENDBRANCH  25  26
ENDBRANCH  23  25
ENDBRANCH  11  23
TORSDOF 5
ENDMDL
MODEL 9
REMARK VINA RESULT:    -6.570      2.316      3.694
REMARK INTER + INTRA:          -9.155
REMARK INTER:                  -8.421
REMARK INTRA:                  -0.734
REMARK UNBOUND:                -0.664
REMARK  Name = ligands_pdb/TRN_CHEMBL522055.pdb
REMARK  6 active torsions:
REMARK  status: ('A' for Active; 'I' for Inactive)
REMARK    1  A    between atoms: C2_2  and  C3_3
REMARK    2  A    between atoms: C9_9  and  C10_10
REMARK    3  A    between atoms: C18_19  and  C19_20
REMARK    4  A    between atoms: C19_20  and  O2_22
REMARK    5  A    between atoms: O2_22  and  C20_23
REMARK    6  A    between atoms: C20_23  and  C21_24
REMARK                            x       y       z     vdW  Elec       q    Type
REMARK                         _______ _______ _______ _____ _____    ______ ____
ROOT
ATOM      1  C3  T21     1     144.557  96.722 133.104  0.00  0.00    +0.025 A 
ATOM      2  C4  T21     1     143.255  96.656 133.625  0.00  0.00    +0.019 A 
ATOM      3  C5  T21     1     142.159  96.991 132.816  0.00  0.00    +0.028 A 
ATOM      4  C6  T21     1     142.359  97.394 131.482  0.00  0.00    +0.053 A 
ATOM      5  C7  T21     1     143.668  97.462 130.946  0.00  0.00    +0.006 A 
ATOM      6  C8  T21     1     144.759  97.124 131.773  0.00  0.00    +0.024 A 
ATOM      7  C9  T21     1     143.936  97.873 129.534  0.00  0.00    +0.116 C 
ATOM      8  N1  T21     1     143.486  98.985 129.041  0.00  0.00    -0.216 NA
ATOM      9  C16 T21     1     142.402  99.759 129.669  0.00  0.00    +0.160 C 
ATOM     10  C17 T21     1     141.232  98.853 129.974  0.00  0.00    +0.073 A 
ATOM     11  C18 T21     1     139.871  98.998 129.518  0.00  0.00    +0.170 A 
ATOM     12  N2  T21     1     139.128  97.985 130.001  0.00  0.00    -0.228 NA
ATOM     13  C22 T21     1     139.949  97.233 130.717  0.00  0.00    +0.205 A 
ATOM     14  N3  T21     1     141.243  97.716 130.712  0.00  0.00    -0.300 N 
ENDROOT
BRANCH   7  15
ATOM     15  C10 T21     1     144.854  97.024 128.721  0.00  0.00    -0.019 A 
ATOM     16  C11 T21     1     144.337  96.030 127.863  0.00  0.00    +0.006 A 
ATOM     17  C12 T21     1     145.197  95.230 127.094  0.00  0.00    +0.000 A 
ATOM     18  C13 T21     1     146.587  95.416 127.170  0.00  0.00    +0.000 A 
ATOM     19  C14 T21     1     147.112  96.406 128.014  0.00  0.00    +0.000 A 
ATOM     20  C15 T21     1     146.251  97.206 128.783  0.00  0.00    +0.006 A 
ENDBRANCH   7  15
BRANCH   1  22
ATOM     21  C1  T21     1     146.630  96.097 134.632  0.00  0.00    +0.009 C 
ATOM     22  C2  T21     1     145.680  96.380 133.928  0.00  0.00    -0.070 C 
ENDBRANCH   1  22
BRANCH  11  23
ATOM     23  C19 T21     1     139.309 100.075 128.665  0.00  0.00    +0.360 C 
ATOM     24  O1  T21     1     139.658 100.292 127.516  0.00  0.00    -0.243 OA
BRANCH  23  25
ATOM     25  O2  T21     1     138.355 100.834 129.291  0.00  0.00    -0.460 OA
BRANCH  25  26
ATOM     26  C20 T21     1     138.753 101.941 130.119  0.00  0.00    +0.229 C 
ATOM     27  C21 T21     1     137.512 102.435 130.883  0.00  0.00    +0.048 C 
ENDBRANCH  25  26
ENDBRANCH  23  25
ENDBRANCH  11  23
TORSDOF 5
ENDMDL
MODEL 10
REMARK VINA RESULT:    -6.444      2.577      6.111
REMARK INTER + INTRA:          -8.991
REMARK INTER:                  -8.969
REMARK INTRA:                  -0.022
REMARK UNBOUND:                -0.664
REMARK  Name = ligands_pdb/TRN_CHEMBL522055.pdb
REMARK  6 active torsions:
REMARK  status: ('A' for Active; 'I' for Inactive)
REMARK    1  A    between atoms: C2_2  and  C3_3
REMARK    2  A    between atoms: C9_9  and  C10_10
REMARK    3  A    between atoms: C18_19  and  C19_20
REMARK    4  A    between atoms: C19_20  and  O2_22
REMARK    5  A    between atoms: O2_22  and  C20_23
REMARK    6  A    between atoms: C20_23  and  C21_24
REMARK                            x       y       z     vdW  Elec       q    Type
REMARK                         _______ _______ _______ _____ _____    ______ ____
ROOT
ATOM      1  C3  T21     1     140.284 100.693 129.860  0.00  0.00    +0.025 A 
ATOM      2  C4  T21     1     140.395 100.151 128.570  0.00  0.00    +0.019 A 
ATOM      3  C5  T21     1     141.398  99.211 128.290  0.00  0.00    +0.028 A 
ATOM      4  C6  T21     1     142.294  98.808 129.298  0.00  0.00    +0.053 A 
ATOM      5  C7  T21     1     142.189  99.346 130.604  0.00  0.00    +0.006 A 
ATOM      6  C8  T21     1     141.177 100.292 130.867  0.00  0.00    +0.024 A 
ATOM      7  C9  T21     1     143.106  98.945 131.713  0.00  0.00    +0.116 C 
ATOM      8  N1  T21     1     144.397  99.010 131.600  0.00  0.00    -0.216 NA
ATOM      9  C16 T21     1     145.082  99.127 130.301  0.00  0.00    +0.160 C 
ATOM     10  C17 T21     1     144.561  98.079 129.347  0.00  0.00    +0.073 A 
ATOM     11  C18 T21     1     145.324  97.069 128.656  0.00  0.00    +0.170 A 
ATOM     12  N2  T21     1     144.497  96.322 127.901  0.00  0.00    -0.228 NA
ATOM     13  C22 T21     1     143.281  96.810 128.091  0.00  0.00    +0.205 A 
ATOM     14  N3  T21     1     143.274  97.869 128.978  0.00  0.00    -0.300 N 
ENDROOT
BRANCH   7  15
ATOM     15  C10 T21     1     142.498  98.579 133.025  0.00  0.00    -0.019 A 
ATOM     16  C11 T21     1     143.225  97.817 133.963  0.00  0.00    +0.006 A 
ATOM     17  C12 T21     1     142.658  97.472 135.200  0.00  0.00    +0.000 A 
ATOM     18  C13 T21     1     141.355  97.889 135.516  0.00  0.00    +0.000 A 
ATOM     19  C14 T21     1     140.624  98.653 134.595  0.00  0.00    +0.000 A 
ATOM     20  C15 T21     1     141.193  98.998 133.357  0.00  0.00    +0.006 A 
ENDBRANCH   7  15
BRANCH   1  22
ATOM     21  C1  T21     1     138.385 102.464 130.392  0.00  0.00    +0.009 C 
ATOM     22  C2  T21     1     139.260 101.655 130.150  0.00  0.00    -0.070 C 
ENDBRANCH   1  22
BRANCH  11  23
ATOM     23  C19 T21     1     146.791  96.843 128.710  0.00  0.00    +0.360 C 
ATOM     24  O1  T21     1     147.462  96.464 127.764  0.00  0.00    -0.243 OA
BRANCH  23  25
ATOM     25  O2  T21     1     147.341  97.086 129.941  0.00  0.00    -0.460 OA
BRANCH  25  26
ATOM     26  C20 T21     1     147.808  95.988 130.745  0.00  0.00    +0.229 C 
ATOM     27  C21 T21     1     146.671  95.579 131.697  0.00  0.00    +0.048 C 
ENDBRANCH  25  26
ENDBRANCH  23  25
ENDBRANCH  11  23
TORSDOF 5
ENDMDL
