MODEL 1
REMARK VINA RESULT:    -8.627      0.000      0.000
REMARK INTER + INTRA:         -12.923
REMARK INTER:                 -11.149
REMARK INTRA:                  -1.774
REMARK UNBOUND:                -1.774
REMARK  Name = ligands_pdb/TRN_CHEMBL120838.pdb
REMARK  6 active torsions:
REMARK  status: ('A' for Active; 'I' for Inactive)
REMARK    1  A    between atoms: C1_1  and  C2_2
REMARK    2  A    between atoms: C3_5  and  C4_6
REMARK    3  A    between atoms: C8_12  and  O2_13
REMARK    4  A    between atoms: O2_13  and  C9_14
REMARK    5  A    between atoms: C9_14  and  C10_15
REMARK    6  A    between atoms: C15_20  and  C16_21
REMARK                            x       y       z     vdW  Elec       q    Type
REMARK                         _______ _______ _______ _____ _____    ______ ____
ROOT
ATOM      1  C4  T01     1     144.340  96.883 135.107  0.00  0.00    +0.243 A 
ATOM      2  N2  T01     1     145.285  96.012 134.774  0.00  0.00    -0.122 NA
ATOM      3  N3  T01     1     145.456  96.089 133.411  0.00  0.00    -0.127 NA
ATOM      4  C5  T01     1     144.599  97.006 133.012  0.00  0.00    +0.182 A 
ATOM      5  C6  T01     1     144.406  97.438 131.671  0.00  0.00    +0.010 A 
ATOM      6  C7  T01     1     143.447  98.411 131.511  0.00  0.00    +0.026 A 
ATOM      7  C8  T01     1     142.737  98.915 132.601  0.00  0.00    +0.237 A 
ATOM      8  N5  T01     1     142.894  98.530 133.881  0.00  0.00    -0.125 NA
ATOM      9  N6  T01     1     143.854  97.560 134.010  0.00  0.00    -0.185 N 
ATOM     10  C17 T01     1     143.283  98.835 130.063  0.00  0.00    +0.025 C 
ATOM     11  C18 T01     1     142.926  97.553 129.250  0.00  0.00    +0.009 C 
ATOM     12  C19 T01     1     144.011  96.447 129.465  0.00  0.00    +0.009 C 
ATOM     13  C20 T01     1     145.120  96.957 130.432  0.00  0.00    +0.023 C 
ATOM     14  C21 T01     1     145.759  98.219 129.785  0.00  0.00    +0.009 C 
ATOM     15  C22 T01     1     144.676  99.328 129.570  0.00  0.00    +0.009 C 
ENDROOT
BRANCH   1  20
ATOM     16  C1  T01     1     142.004  96.362 139.337  0.00  0.00    +0.091 C 
ATOM     17  C2  T01     1     142.956  96.831 138.271  0.00  0.00    +0.169 A 
ATOM     18  N1  T01     1     143.859  97.774 138.511  0.00  0.00    -0.061 NA
ATOM     19  O1  T01     1     144.543  97.934 137.291  0.00  0.00    -0.329 OA
ATOM     20  C3  T01     1     143.930  97.039 136.480  0.00  0.00    +0.298 A 
ATOM     21  N7  T01     1     142.988  96.384 137.059  0.00  0.00    -0.189 NA
ENDBRANCH   1  20
BRANCH   7  22
ATOM     22  O2  T01     1     141.797  99.887 132.359  0.00  0.00    -0.470 OA
BRANCH  22  23
ATOM     23  C9  T01     1     140.376  99.627 132.379  0.00  0.00    +0.267 C 
BRANCH  23  24
ATOM     24  C10 T01     1     139.897  98.974 131.077  0.00  0.00    +0.007 A 
ATOM     25  C11 T01     1     139.781  97.571 130.962  0.00  0.00    +0.008 A 
ATOM     26  C12 T01     1     139.341  96.982 129.766  0.00  0.00    +0.000 A 
ATOM     27  C13 T01     1     139.012  97.786 128.666  0.00  0.00    +0.001 A 
ATOM     28  C14 T01     1     139.122  99.181 128.765  0.00  0.00    +0.019 A 
ATOM     29  C15 T01     1     139.562  99.778 129.961  0.00  0.00    +0.058 A 
BRANCH  29  30
ATOM     30  C16 T01     1     139.660 101.211 130.017  0.00  0.00    +0.100 C 
ATOM     31  N4  T01     1     139.731 102.364 130.053  0.00  0.00    -0.191 NA
ENDBRANCH  29  30
ENDBRANCH  23  24
ENDBRANCH  22  23
ENDBRANCH   7  22
TORSDOF 5
ENDMDL
MODEL 2
REMARK VINA RESULT:    -8.461      1.769      2.277
REMARK INTER + INTRA:         -12.709
REMARK INTER:                 -10.952
REMARK INTRA:                  -1.757
REMARK UNBOUND:                -1.774
REMARK  Name = ligands_pdb/TRN_CHEMBL120838.pdb
REMARK  6 active torsions:
REMARK  status: ('A' for Active; 'I' for Inactive)
REMARK    1  A    between atoms: C1_1  and  C2_2
REMARK    2  A    between atoms: C3_5  and  C4_6
REMARK    3  A    between atoms: C8_12  and  O2_13
REMARK    4  A    between atoms: O2_13  and  C9_14
REMARK    5  A    between atoms: C9_14  and  C10_15
REMARK    6  A    between atoms: C15_20  and  C16_21
REMARK                            x       y       z     vdW  Elec       q    Type
REMARK                         _______ _______ _______ _____ _____    ______ ____
ROOT
ATOM      1  C4  T01     1     144.213  96.954 135.340  0.00  0.00    +0.243 A 
ATOM      2  N2  T01     1     145.537  97.047 135.310  0.00  0.00    -0.122 NA
ATOM      3  N3  T01     1     145.934  96.862 134.006  0.00  0.00    -0.127 NA
ATOM      4  C5  T01     1     144.818  96.669 133.334  0.00  0.00    +0.182 A 
ATOM      5  C6  T01     1     144.718  96.431 131.936  0.00  0.00    +0.010 A 
ATOM      6  C7  T01     1     143.434  96.259 131.470  0.00  0.00    +0.026 A 
ATOM      7  C8  T01     1     142.338  96.319 132.330  0.00  0.00    +0.237 A 
ATOM      8  N5  T01     1     142.396  96.542 133.656  0.00  0.00    -0.125 NA
ATOM      9  N6  T01     1     143.685  96.709 134.091  0.00  0.00    -0.185 N 
ATOM     10  C17 T01     1     143.386  96.010 129.974  0.00  0.00    +0.025 C 
ATOM     11  C18 T01     1     144.262  94.751 129.692  0.00  0.00    +0.009 C 
ATOM     12  C19 T01     1     145.709  94.953 130.252  0.00  0.00    +0.009 C 
ATOM     13  C20 T01     1     145.838  96.349 130.928  0.00  0.00    +0.023 C 
ATOM     14  C21 T01     1     145.525  97.423 129.846  0.00  0.00    +0.009 C 
ATOM     15  C22 T01     1     144.078  97.225 129.285  0.00  0.00    +0.009 C 
ENDROOT
BRANCH   1  20
ATOM     16  C1  T01     1     143.091  97.922 139.969  0.00  0.00    +0.091 C 
ATOM     17  C2  T01     1     142.999  97.507 138.527  0.00  0.00    +0.169 A 
ATOM     18  N1  T01     1     141.863  97.063 138.001  0.00  0.00    -0.061 NA
ATOM     19  O1  T01     1     142.177  96.779 136.659  0.00  0.00    -0.329 OA
ATOM     20  C3  T01     1     143.490  97.102 136.578  0.00  0.00    +0.298 A 
ATOM     21  N7  T01     1     143.979  97.534 137.684  0.00  0.00    -0.189 NA
ENDBRANCH   1  20
BRANCH   7  22
ATOM     22  O2  T01     1     141.089  96.138 131.788  0.00  0.00    -0.470 OA
BRANCH  22  23
ATOM     23  C9  T01     1     140.111  97.199 131.698  0.00  0.00    +0.267 C 
BRANCH  23  24
ATOM     24  C10 T01     1     140.542  98.290 130.712  0.00  0.00    +0.007 A 
ATOM     25  C11 T01     1     140.513  98.069 129.317  0.00  0.00    +0.008 A 
ATOM     26  C12 T01     1     140.910  99.075 128.421  0.00  0.00    +0.000 A 
ATOM     27  C13 T01     1     141.342 100.317 128.907  0.00  0.00    +0.001 A 
ATOM     28  C14 T01     1     141.377 100.551 130.289  0.00  0.00    +0.019 A 
ATOM     29  C15 T01     1     140.980  99.548 131.192  0.00  0.00    +0.058 A 
BRANCH  29  30
ATOM     30  C16 T01     1     141.032  99.833 132.600  0.00  0.00    +0.100 C 
ATOM     31  N4  T01     1     141.067 100.070 133.731  0.00  0.00    -0.191 NA
ENDBRANCH  29  30
ENDBRANCH  23  24
ENDBRANCH  22  23
ENDBRANCH   7  22
TORSDOF 5
ENDMDL
MODEL 3
REMARK VINA RESULT:    -7.971      1.958      2.527
REMARK INTER + INTRA:         -12.075
REMARK INTER:                 -10.285
REMARK INTRA:                  -1.790
REMARK UNBOUND:                -1.774
REMARK  Name = ligands_pdb/TRN_CHEMBL120838.pdb
REMARK  6 active torsions:
REMARK  status: ('A' for Active; 'I' for Inactive)
REMARK    1  A    between atoms: C1_1  and  C2_2
REMARK    2  A    between atoms: C3_5  and  C4_6
REMARK    3  A    between atoms: C8_12  and  O2_13
REMARK    4  A    between atoms: O2_13  and  C9_14
REMARK    5  A    between atoms: C9_14  and  C10_15
REMARK    6  A    between atoms: C15_20  and  C16_21
REMARK                            x       y       z     vdW  Elec       q    Type
REMARK                         _______ _______ _______ _____ _____    ______ ____
ROOT
ATOM      1  C4  T01     1     144.319  96.645 135.369  0.00  0.00    +0.243 A 
ATOM      2  N2  T01     1     145.644  96.636 135.278  0.00  0.00    -0.122 NA
ATOM      3  N3  T01     1     145.964  96.447 133.953  0.00  0.00    -0.127 NA
ATOM      4  C5  T01     1     144.806  96.354 133.333  0.00  0.00    +0.182 A 
ATOM      5  C6  T01     1     144.622  96.153 131.937  0.00  0.00    +0.010 A 
ATOM      6  C7  T01     1     143.309  96.090 131.531  0.00  0.00    +0.026 A 
ATOM      7  C8  T01     1     142.262  96.217 132.443  0.00  0.00    +0.237 A 
ATOM      8  N5  T01     1     142.399  96.408 133.769  0.00  0.00    -0.125 NA
ATOM      9  N6  T01     1     143.716  96.466 134.144  0.00  0.00    -0.185 N 
ATOM     10  C17 T01     1     143.172  95.875 130.035  0.00  0.00    +0.025 C 
ATOM     11  C18 T01     1     143.933  94.558 129.691  0.00  0.00    +0.009 C 
ATOM     12  C19 T01     1     145.415  94.636 130.184  0.00  0.00    +0.009 C 
ATOM     13  C20 T01     1     145.685  96.004 130.876  0.00  0.00    +0.023 C 
ATOM     14  C21 T01     1     145.407  97.120 129.828  0.00  0.00    +0.009 C 
ATOM     15  C22 T01     1     143.924  97.046 129.334  0.00  0.00    +0.009 C 
ENDROOT
BRANCH   1  20
ATOM     16  C1  T01     1     143.143  98.301 139.785  0.00  0.00    +0.091 C 
ATOM     17  C2  T01     1     143.158  97.512 138.505  0.00  0.00    +0.169 A 
ATOM     18  N1  T01     1     142.290  96.533 138.282  0.00  0.00    -0.061 NA
ATOM     19  O1  T01     1     142.621  96.044 137.004  0.00  0.00    -0.329 OA
ATOM     20  C3  T01     1     143.669  96.824 136.643  0.00  0.00    +0.298 A 
ATOM     21  N7  T01     1     143.989  97.695 137.532  0.00  0.00    -0.189 NA
ENDBRANCH   1  20
BRANCH   7  22
ATOM     22  O2  T01     1     140.979  96.145 131.959  0.00  0.00    -0.470 OA
BRANCH  22  23
ATOM     23  C9  T01     1     140.126  97.303 131.818  0.00  0.00    +0.267 C 
BRANCH  23  24
ATOM     24  C10 T01     1     140.718  98.332 130.848  0.00  0.00    +0.007 A 
ATOM     25  C11 T01     1     141.612  99.330 131.296  0.00  0.00    +0.008 A 
ATOM     26  C12 T01     1     142.149 100.268 130.400  0.00  0.00    +0.000 A 
ATOM     27  C13 T01     1     141.798 100.225 129.043  0.00  0.00    +0.001 A 
ATOM     28  C14 T01     1     140.910  99.241 128.584  0.00  0.00    +0.019 A 
ATOM     29  C15 T01     1     140.369  98.297 129.476  0.00  0.00    +0.058 A 
BRANCH  29  30
ATOM     30  C16 T01     1     139.463  97.307 128.961  0.00  0.00    +0.100 C 
ATOM     31  N4  T01     1     138.740  96.503 128.552  0.00  0.00    -0.191 NA
ENDBRANCH  29  30
ENDBRANCH  23  24
ENDBRANCH  22  23
ENDBRANCH   7  22
TORSDOF 5
ENDMDL
MODEL 4
REMARK VINA RESULT:    -7.781      2.139      4.981
REMARK INTER + INTRA:         -11.830
REMARK INTER:                 -10.329
REMARK INTRA:                  -1.500
REMARK UNBOUND:                -1.774
REMARK  Name = ligands_pdb/TRN_CHEMBL120838.pdb
REMARK  6 active torsions:
REMARK  status: ('A' for Active; 'I' for Inactive)
REMARK    1  A    between atoms: C1_1  and  C2_2
REMARK    2  A    between atoms: C3_5  and  C4_6
REMARK    3  A    between atoms: C8_12  and  O2_13
REMARK    4  A    between atoms: O2_13  and  C9_14
REMARK    5  A    between atoms: C9_14  and  C10_15
REMARK    6  A    between atoms: C15_20  and  C16_21
REMARK                            x       y       z     vdW  Elec       q    Type
REMARK                         _______ _______ _______ _____ _____    ______ ____
ROOT
ATOM      1  C4  T01     1     141.902  97.558 135.567  0.00  0.00    +0.243 A 
ATOM      2  N2  T01     1     140.696  98.075 135.364  0.00  0.00    -0.122 NA
ATOM      3  N3  T01     1     140.630  98.460 134.044  0.00  0.00    -0.127 NA
ATOM      4  C5  T01     1     141.805  98.147 133.539  0.00  0.00    +0.182 A 
ATOM      5  C6  T01     1     142.216  98.355 132.194  0.00  0.00    +0.010 A 
ATOM      6  C7  T01     1     143.498  97.942 131.911  0.00  0.00    +0.026 A 
ATOM      7  C8  T01     1     144.305  97.365 132.891  0.00  0.00    +0.237 A 
ATOM      8  N5  T01     1     143.950  97.153 134.172  0.00  0.00    -0.125 NA
ATOM      9  N6  T01     1     142.670  97.575 134.424  0.00  0.00    -0.185 N 
ATOM     10  C17 T01     1     143.883  98.187 130.464  0.00  0.00    +0.025 C 
ATOM     11  C18 T01     1     143.712  99.714 130.198  0.00  0.00    +0.009 C 
ATOM     12  C19 T01     1     142.259 100.173 130.552  0.00  0.00    +0.009 C 
ATOM     13  C20 T01     1     141.420  98.967 131.067  0.00  0.00    +0.023 C 
ATOM     14  C21 T01     1     141.388  97.902 129.933  0.00  0.00    +0.009 C 
ATOM     15  C22 T01     1     142.840  97.440 129.579  0.00  0.00    +0.009 C 
ENDROOT
BRANCH   1  20
ATOM     16  C1  T01     1     142.182  96.867 140.370  0.00  0.00    +0.091 C 
ATOM     17  C2  T01     1     142.411  96.755 138.888  0.00  0.00    +0.169 A 
ATOM     18  N1  T01     1     143.294  95.901 138.383  0.00  0.00    -0.061 NA
ATOM     19  O1  T01     1     143.222  96.093 136.991  0.00  0.00    -0.329 OA
ATOM     20  C3  T01     1     142.282  97.060 136.865  0.00  0.00    +0.298 A 
ATOM     21  N7  T01     1     141.800  97.454 137.989  0.00  0.00    -0.189 NA
ENDBRANCH   1  20
BRANCH   7  22
ATOM     22  O2  T01     1     145.573  96.976 132.529  0.00  0.00    -0.470 OA
BRANCH  22  23
ATOM     23  C9  T01     1     145.941  95.594 132.323  0.00  0.00    +0.267 C 
BRANCH  23  24
ATOM     24  C10 T01     1     145.776  95.171 130.859  0.00  0.00    +0.007 A 
ATOM     25  C11 T01     1     144.633  94.464 130.426  0.00  0.00    +0.008 A 
ATOM     26  C12 T01     1     144.491  94.080 129.083  0.00  0.00    +0.000 A 
ATOM     27  C13 T01     1     145.491  94.396 128.153  0.00  0.00    +0.001 A 
ATOM     28  C14 T01     1     146.633  95.097 128.568  0.00  0.00    +0.019 A 
ATOM     29  C15 T01     1     146.781  95.485 129.913  0.00  0.00    +0.058 A 
BRANCH  29  30
ATOM     30  C16 T01     1     147.967  96.202 130.292  0.00  0.00    +0.100 C 
ATOM     31  N4  T01     1     148.917  96.781 130.608  0.00  0.00    -0.191 NA
ENDBRANCH  29  30
ENDBRANCH  23  24
ENDBRANCH  22  23
ENDBRANCH   7  22
TORSDOF 5
ENDMDL
MODEL 5
REMARK VINA RESULT:    -7.720      4.124      8.113
REMARK INTER + INTRA:         -11.751
REMARK INTER:                  -9.752
REMARK INTRA:                  -1.999
REMARK UNBOUND:                -1.774
REMARK  Name = ligands_pdb/TRN_CHEMBL120838.pdb
REMARK  6 active torsions:
REMARK  status: ('A' for Active; 'I' for Inactive)
REMARK    1  A    between atoms: C1_1  and  C2_2
REMARK    2  A    between atoms: C3_5  and  C4_6
REMARK    3  A    between atoms: C8_12  and  O2_13
REMARK    4  A    between atoms: O2_13  and  C9_14
REMARK    5  A    between atoms: C9_14  and  C10_15
REMARK    6  A    between atoms: C15_20  and  C16_21
REMARK                            x       y       z     vdW  Elec       q    Type
REMARK                         _______ _______ _______ _____ _____    ______ ____
ROOT
ATOM      1  C4  T01     1     139.667  97.202 126.827  0.00  0.00    +0.243 A 
ATOM      2  N2  T01     1     140.007  98.315 126.188  0.00  0.00    -0.122 NA
ATOM      3  N3  T01     1     140.522  99.185 127.121  0.00  0.00    -0.127 NA
ATOM      4  C5  T01     1     140.457  98.536 128.265  0.00  0.00    +0.182 A 
ATOM      5  C6  T01     1     140.878  99.031 129.529  0.00  0.00    +0.010 A 
ATOM      6  C7  T01     1     140.705  98.157 130.578  0.00  0.00    +0.026 A 
ATOM      7  C8  T01     1     140.157  96.890 130.382  0.00  0.00    +0.237 A 
ATOM      8  N5  T01     1     139.750  96.389 129.201  0.00  0.00    -0.125 NA
ATOM      9  N6  T01     1     139.933  97.280 128.176  0.00  0.00    -0.185 N 
ATOM     10  C17 T01     1     141.170  98.737 131.902  0.00  0.00    +0.025 C 
ATOM     11  C18 T01     1     140.370 100.055 132.129  0.00  0.00    +0.009 C 
ATOM     12  C19 T01     1     140.554 101.026 130.916  0.00  0.00    +0.009 C 
ATOM     13  C20 T01     1     141.478 100.380 129.842  0.00  0.00    +0.023 C 
ATOM     14  C21 T01     1     142.851 100.095 130.517  0.00  0.00    +0.009 C 
ATOM     15  C22 T01     1     142.670  99.124 131.730  0.00  0.00    +0.009 C 
ENDROOT
BRANCH   1  20
ATOM     16  C1  T01     1     139.039  92.866 124.724  0.00  0.00    +0.091 C 
ATOM     17  C2  T01     1     138.809  94.264 125.225  0.00  0.00    +0.169 A 
ATOM     18  N1  T01     1     137.661  94.898 125.015  0.00  0.00    -0.061 NA
ATOM     19  O1  T01     1     137.832  96.157 125.620  0.00  0.00    -0.329 OA
ATOM     20  C3  T01     1     139.091  96.089 126.115  0.00  0.00    +0.298 A 
ATOM     21  N7  T01     1     139.672  94.967 125.881  0.00  0.00    -0.189 NA
ENDBRANCH   1  20
BRANCH   7  22
ATOM     22  O2  T01     1     140.019  96.075 131.480  0.00  0.00    -0.470 OA
BRANCH  22  23
ATOM     23  C9  T01     1     140.905  94.966 131.750  0.00  0.00    +0.267 C 
BRANCH  23  24
ATOM     24  C10 T01     1     142.299  95.439 132.175  0.00  0.00    +0.007 A 
ATOM     25  C11 T01     1     142.554  95.874 133.495  0.00  0.00    +0.008 A 
ATOM     26  C12 T01     1     143.835  96.305 133.875  0.00  0.00    +0.000 A 
ATOM     27  C13 T01     1     144.880  96.310 132.941  0.00  0.00    +0.001 A 
ATOM     28  C14 T01     1     144.643  95.882 131.627  0.00  0.00    +0.019 A 
ATOM     29  C15 T01     1     143.362  95.448 131.240  0.00  0.00    +0.058 A 
BRANCH  29  30
ATOM     30  C16 T01     1     143.165  95.018 129.882  0.00  0.00    +0.100 C 
ATOM     31  N4  T01     1     143.003  94.682 128.788  0.00  0.00    -0.191 NA
ENDBRANCH  29  30
ENDBRANCH  23  24
ENDBRANCH  22  23
ENDBRANCH   7  22
TORSDOF 5
ENDMDL
MODEL 6
REMARK VINA RESULT:    -7.574      3.933      7.766
REMARK INTER + INTRA:         -11.562
REMARK INTER:                  -9.767
REMARK INTRA:                  -1.795
REMARK UNBOUND:                -1.774
REMARK  Name = ligands_pdb/TRN_CHEMBL120838.pdb
REMARK  6 active torsions:
REMARK  status: ('A' for Active; 'I' for Inactive)
REMARK    1  A    between atoms: C1_1  and  C2_2
REMARK    2  A    between atoms: C3_5  and  C4_6
REMARK    3  A    between atoms: C8_12  and  O2_13
REMARK    4  A    between atoms: O2_13  and  C9_14
REMARK    5  A    between atoms: C9_14  and  C10_15
REMARK    6  A    between atoms: C15_20  and  C16_21
REMARK                            x       y       z     vdW  Elec       q    Type
REMARK                         _______ _______ _______ _____ _____    ______ ____
ROOT
ATOM      1  C4  T01     1     139.196  97.949 128.689  0.00  0.00    +0.243 A 
ATOM      2  N2  T01     1     138.993  99.260 128.738  0.00  0.00    -0.122 NA
ATOM      3  N3  T01     1     139.609  99.731 129.875  0.00  0.00    -0.127 NA
ATOM      4  C5  T01     1     140.145  98.667 130.437  0.00  0.00    +0.182 A 
ATOM      5  C6  T01     1     140.893  98.652 131.646  0.00  0.00    +0.010 A 
ATOM      6  C7  T01     1     141.348  97.410 132.027  0.00  0.00    +0.026 A 
ATOM      7  C8  T01     1     141.080  96.275 131.263  0.00  0.00    +0.237 A 
ATOM      8  N5  T01     1     140.377  96.253 130.115  0.00  0.00    -0.125 NA
ATOM      9  N6  T01     1     139.936  97.502 129.761  0.00  0.00    -0.185 N 
ATOM     10  C17 T01     1     142.139  97.452 133.322  0.00  0.00    +0.025 C 
ATOM     11  C18 T01     1     141.205  98.068 134.408  0.00  0.00    +0.009 C 
ATOM     12  C19 T01     1     140.673  99.465 133.947  0.00  0.00    +0.009 C 
ATOM     13  C20 T01     1     141.234  99.820 132.539  0.00  0.00    +0.023 C 
ATOM     14  C21 T01     1     142.786  99.842 132.646  0.00  0.00    +0.009 C 
ATOM     15  C22 T01     1     143.320  98.445 133.105  0.00  0.00    +0.009 C 
ENDROOT
BRANCH   1  20
ATOM     16  C1  T01     1     138.720  94.631 125.170  0.00  0.00    +0.091 C 
ATOM     17  C2  T01     1     138.449  95.766 126.119  0.00  0.00    +0.169 A 
ATOM     18  N1  T01     1     137.306  96.440 126.089  0.00  0.00    -0.061 NA
ATOM     19  O1  T01     1     137.432  97.405 127.105  0.00  0.00    -0.329 OA
ATOM     20  C3  T01     1     138.668  97.160 127.605  0.00  0.00    +0.298 A 
ATOM     21  N7  T01     1     139.272  96.189 127.021  0.00  0.00    -0.189 NA
ENDBRANCH   1  20
BRANCH   7  22
ATOM     22  O2  T01     1     141.571  95.072 131.710  0.00  0.00    -0.470 OA
BRANCH  22  23
ATOM     23  C9  T01     1     142.512  94.279 130.953  0.00  0.00    +0.267 C 
BRANCH  23  24
ATOM     24  C10 T01     1     143.786  95.065 130.621  0.00  0.00    +0.007 A 
ATOM     25  C11 T01     1     144.695  95.446 131.632  0.00  0.00    +0.008 A 
ATOM     26  C12 T01     1     145.858  96.166 131.318  0.00  0.00    +0.000 A 
ATOM     27  C13 T01     1     146.130  96.519 129.989  0.00  0.00    +0.001 A 
ATOM     28  C14 T01     1     145.236  96.148 128.974  0.00  0.00    +0.019 A 
ATOM     29  C15 T01     1     144.068  95.426 129.281  0.00  0.00    +0.058 A 
BRANCH  29  30
ATOM     30  C16 T01     1     143.181  95.068 128.208  0.00  0.00    +0.100 C 
ATOM     31  N4  T01     1     142.473  94.786 127.339  0.00  0.00    -0.191 NA
ENDBRANCH  29  30
ENDBRANCH  23  24
ENDBRANCH  22  23
ENDBRANCH   7  22
TORSDOF 5
ENDMDL
MODEL 7
REMARK VINA RESULT:    -7.482      3.512      6.981
REMARK INTER + INTRA:         -11.443
REMARK INTER:                  -9.808
REMARK INTRA:                  -1.635
REMARK UNBOUND:                -1.774
REMARK  Name = ligands_pdb/TRN_CHEMBL120838.pdb
REMARK  6 active torsions:
REMARK  status: ('A' for Active; 'I' for Inactive)
REMARK    1  A    between atoms: C1_1  and  C2_2
REMARK    2  A    between atoms: C3_5  and  C4_6
REMARK    3  A    between atoms: C8_12  and  O2_13
REMARK    4  A    between atoms: O2_13  and  C9_14
REMARK    5  A    between atoms: C9_14  and  C10_15
REMARK    6  A    between atoms: C15_20  and  C16_21
REMARK                            x       y       z     vdW  Elec       q    Type
REMARK                         _______ _______ _______ _____ _____    ______ ____
ROOT
ATOM      1  C4  T01     1     143.987  95.966 127.589  0.00  0.00    +0.243 A 
ATOM      2  N2  T01     1     143.204  95.068 127.003  0.00  0.00    -0.122 NA
ATOM      3  N3  T01     1     141.901  95.434 127.250  0.00  0.00    -0.127 NA
ATOM      4  C5  T01     1     141.986  96.532 127.972  0.00  0.00    +0.182 A 
ATOM      5  C6  T01     1     140.891  97.287 128.474  0.00  0.00    +0.010 A 
ATOM      6  C7  T01     1     141.242  98.398 129.205  0.00  0.00    +0.026 A 
ATOM      7  C8  T01     1     142.579  98.732 129.417  0.00  0.00    +0.237 A 
ATOM      8  N5  T01     1     143.640  98.042 128.958  0.00  0.00    -0.125 NA
ATOM      9  N6  T01     1     143.260  96.941 128.235  0.00  0.00    -0.185 N 
ATOM     10  C17 T01     1     140.036  99.166 129.714  0.00  0.00    +0.025 C 
ATOM     11  C18 T01     1     139.191  98.172 130.570  0.00  0.00    +0.009 C 
ATOM     12  C19 T01     1     138.825  96.902 129.734  0.00  0.00    +0.009 C 
ATOM     13  C20 T01     1     139.418  97.009 128.299  0.00  0.00    +0.023 C 
ATOM     14  C21 T01     1     138.814  98.281 127.637  0.00  0.00    +0.009 C 
ATOM     15  C22 T01     1     139.181  99.554 128.470  0.00  0.00    +0.009 C 
ENDROOT
BRANCH   1  20
ATOM     16  C1  T01     1     148.695  95.774 128.780  0.00  0.00    +0.091 C 
ATOM     17  C2  T01     1     147.412  95.771 127.997  0.00  0.00    +0.169 A 
ATOM     18  N1  T01     1     147.402  95.621 126.678  0.00  0.00    -0.061 NA
ATOM     19  O1  T01     1     146.042  95.675 126.321  0.00  0.00    -0.329 OA
ATOM     20  C3  T01     1     145.422  95.856 127.512  0.00  0.00    +0.298 A 
ATOM     21  N7  T01     1     146.233  95.913 128.507  0.00  0.00    -0.189 NA
ENDBRANCH   1  20
BRANCH   7  22
ATOM     22  O2  T01     1     142.848  99.859 130.156  0.00  0.00    -0.470 OA
BRANCH  22  23
ATOM     23  C9  T01     1     143.580  99.825 131.401  0.00  0.00    +0.267 C 
BRANCH  23  24
ATOM     24  C10 T01     1     142.711  99.325 132.561  0.00  0.00    +0.007 A 
ATOM     25  C11 T01     1     141.474  99.935 132.864  0.00  0.00    +0.008 A 
ATOM     26  C12 T01     1     140.685  99.470 133.928  0.00  0.00    +0.000 A 
ATOM     27  C13 T01     1     141.122  98.390 134.707  0.00  0.00    +0.001 A 
ATOM     28  C14 T01     1     142.349  97.775 134.419  0.00  0.00    +0.019 A 
ATOM     29  C15 T01     1     143.144  98.235 133.353  0.00  0.00    +0.058 A 
BRANCH  29  30
ATOM     30  C16 T01     1     144.394  97.574 133.095  0.00  0.00    +0.100 C 
ATOM     31  N4  T01     1     145.394  97.033 132.883  0.00  0.00    -0.191 NA
ENDBRANCH  29  30
ENDBRANCH  23  24
ENDBRANCH  22  23
ENDBRANCH   7  22
TORSDOF 5
ENDMDL
MODEL 8
REMARK VINA RESULT:    -7.462      2.051      4.827
REMARK INTER + INTRA:         -11.417
REMARK INTER:                  -9.377
REMARK INTRA:                  -2.040
REMARK UNBOUND:                -1.774
REMARK  Name = ligands_pdb/TRN_CHEMBL120838.pdb
REMARK  6 active torsions:
REMARK  status: ('A' for Active; 'I' for Inactive)
REMARK    1  A    between atoms: C1_1  and  C2_2
REMARK    2  A    between atoms: C3_5  and  C4_6
REMARK    3  A    between atoms: C8_12  and  O2_13
REMARK    4  A    between atoms: O2_13  and  C9_14
REMARK    5  A    between atoms: C9_14  and  C10_15
REMARK    6  A    between atoms: C15_20  and  C16_21
REMARK                            x       y       z     vdW  Elec       q    Type
REMARK                         _______ _______ _______ _____ _____    ______ ____
ROOT
ATOM      1  C4  T01     1     141.992  98.183 134.015  0.00  0.00    +0.243 A 
ATOM      2  N2  T01     1     141.728  99.484 133.968  0.00  0.00    -0.122 NA
ATOM      3  N3  T01     1     141.315  99.774 132.688  0.00  0.00    -0.127 NA
ATOM      4  C5  T01     1     141.357  98.624 132.047  0.00  0.00    +0.182 A 
ATOM      5  C6  T01     1     141.016  98.418 130.682  0.00  0.00    +0.010 A 
ATOM      6  C7  T01     1     141.145  97.119 130.245  0.00  0.00    +0.026 A 
ATOM      7  C8  T01     1     141.579  96.107 131.101  0.00  0.00    +0.237 A 
ATOM      8  N5  T01     1     141.909  96.266 132.396  0.00  0.00    -0.125 NA
ATOM      9  N6  T01     1     141.772  97.568 132.803  0.00  0.00    -0.185 N 
ATOM     10  C17 T01     1     140.768  96.957 128.784  0.00  0.00    +0.025 C 
ATOM     11  C18 T01     1     141.681  97.920 127.967  0.00  0.00    +0.009 C 
ATOM     12  C19 T01     1     141.545  99.386 128.495  0.00  0.00    +0.009 C 
ATOM     13  C20 T01     1     140.540  99.442 129.682  0.00  0.00    +0.023 C 
ATOM     14  C21 T01     1     139.168  98.928 129.158  0.00  0.00    +0.009 C 
ATOM     15  C22 T01     1     139.301  97.462 128.631  0.00  0.00    +0.009 C 
ENDROOT
BRANCH   1  20
ATOM     16  C1  T01     1     142.163  96.395 138.532  0.00  0.00    +0.091 C 
ATOM     17  C2  T01     1     142.541  96.807 137.136  0.00  0.00    +0.169 A 
ATOM     18  N1  T01     1     143.763  96.602 136.657  0.00  0.00    -0.061 NA
ATOM     19  O1  T01     1     143.725  97.117 135.348  0.00  0.00    -0.329 OA
ATOM     20  C3  T01     1     142.452  97.567 135.235  0.00  0.00    +0.298 A 
ATOM     21  N7  T01     1     141.749  97.384 136.294  0.00  0.00    -0.189 NA
ENDBRANCH   1  20
BRANCH   7  22
ATOM     22  O2  T01     1     141.679  94.836 130.589  0.00  0.00    -0.470 OA
BRANCH  22  23
ATOM     23  C9  T01     1     142.946  94.177 130.367  0.00  0.00    +0.267 C 
BRANCH  23  24
ATOM     24  C10 T01     1     143.745  94.841 129.239  0.00  0.00    +0.007 A 
ATOM     25  C11 T01     1     143.440  94.593 127.882  0.00  0.00    +0.008 A 
ATOM     26  C12 T01     1     144.177  95.205 126.857  0.00  0.00    +0.000 A 
ATOM     27  C13 T01     1     145.232  96.073 127.171  0.00  0.00    +0.001 A 
ATOM     28  C14 T01     1     145.547  96.328 128.514  0.00  0.00    +0.019 A 
ATOM     29  C15 T01     1     144.812  95.719 129.547  0.00  0.00    +0.058 A 
BRANCH  29  30
ATOM     30  C16 T01     1     145.171  96.010 130.908  0.00  0.00    +0.100 C 
ATOM     31  N4  T01     1     145.453  96.253 132.003  0.00  0.00    -0.191 NA
ENDBRANCH  29  30
ENDBRANCH  23  24
ENDBRANCH  22  23
ENDBRANCH   7  22
TORSDOF 5
ENDMDL
MODEL 9
REMARK VINA RESULT:    -7.308      3.141      5.388
REMARK INTER + INTRA:         -11.218
REMARK INTER:                  -9.396
REMARK INTRA:                  -1.822
REMARK UNBOUND:                -1.774
REMARK  Name = ligands_pdb/TRN_CHEMBL120838.pdb
REMARK  6 active torsions:
REMARK  status: ('A' for Active; 'I' for Inactive)
REMARK    1  A    between atoms: C1_1  and  C2_2
REMARK    2  A    between atoms: C3_5  and  C4_6
REMARK    3  A    between atoms: C8_12  and  O2_13
REMARK    4  A    between atoms: O2_13  and  C9_14
REMARK    5  A    between atoms: C9_14  and  C10_15
REMARK    6  A    between atoms: C15_20  and  C16_21
REMARK                            x       y       z     vdW  Elec       q    Type
REMARK                         _______ _______ _______ _____ _____    ______ ____
ROOT
ATOM      1  C4  T01     1     146.368  95.447 131.980  0.00  0.00    +0.243 A 
ATOM      2  N2  T01     1     146.847  95.962 133.105  0.00  0.00    -0.122 NA
ATOM      3  N3  T01     1     145.911  96.849 133.585  0.00  0.00    -0.127 NA
ATOM      4  C5  T01     1     144.925  96.808 132.712  0.00  0.00    +0.182 A 
ATOM      5  C6  T01     1     143.720  97.560 132.780  0.00  0.00    +0.010 A 
ATOM      6  C7  T01     1     142.844  97.340 131.743  0.00  0.00    +0.026 A 
ATOM      7  C8  T01     1     143.143  96.442 130.720  0.00  0.00    +0.237 A 
ATOM      8  N5  T01     1     144.272  95.714 130.624  0.00  0.00    -0.125 NA
ATOM      9  N6  T01     1     145.126  95.954 131.668  0.00  0.00    -0.185 N 
ATOM     10  C17 T01     1     141.577  98.167 131.866  0.00  0.00    +0.025 C 
ATOM     11  C18 T01     1     142.012  99.663 131.929  0.00  0.00    +0.009 C 
ATOM     12  C19 T01     1     143.030  99.890 133.095  0.00  0.00    +0.009 C 
ATOM     13  C20 T01     1     143.307  98.552 133.840  0.00  0.00    +0.023 C 
ATOM     14  C21 T01     1     141.949  98.040 134.403  0.00  0.00    +0.009 C 
ATOM     15  C22 T01     1     140.930  97.811 133.238  0.00  0.00    +0.009 C 
ENDROOT
BRANCH   1  20
ATOM     16  C1  T01     1     147.664  91.428 129.573  0.00  0.00    +0.091 C 
ATOM     17  C2  T01     1     147.688  92.789 130.211  0.00  0.00    +0.169 A 
ATOM     18  N1  T01     1     148.771  93.556 130.172  0.00  0.00    -0.061 NA
ATOM     19  O1  T01     1     148.407  94.725 130.867  0.00  0.00    -0.329 OA
ATOM     20  C3  T01     1     147.126  94.476 131.231  0.00  0.00    +0.298 A 
ATOM     21  N7  T01     1     146.697  93.329 130.843  0.00  0.00    -0.189 NA
ENDBRANCH   1  20
BRANCH   7  22
ATOM     22  O2  T01     1     142.214  96.276 129.720  0.00  0.00    -0.470 OA
BRANCH  22  23
ATOM     23  C9  T01     1     142.380  96.829 128.396  0.00  0.00    +0.267 C 
BRANCH  23  24
ATOM     24  C10 T01     1     141.641  98.162 128.236  0.00  0.00    +0.007 A 
ATOM     25  C11 T01     1     140.260  98.203 127.941  0.00  0.00    +0.008 A 
ATOM     26  C12 T01     1     139.592  99.429 127.797  0.00  0.00    +0.000 A 
ATOM     27  C13 T01     1     140.294 100.634 127.943  0.00  0.00    +0.001 A 
ATOM     28  C14 T01     1     141.666 100.609 128.236  0.00  0.00    +0.019 A 
ATOM     29  C15 T01     1     142.342  99.384 128.382  0.00  0.00    +0.058 A 
BRANCH  29  30
ATOM     30  C16 T01     1     143.747  99.408 128.681  0.00  0.00    +0.100 C 
ATOM     31  N4  T01     1     144.877  99.418 128.927  0.00  0.00    -0.191 NA
ENDBRANCH  29  30
ENDBRANCH  23  24
ENDBRANCH  22  23
ENDBRANCH   7  22
TORSDOF 5
ENDMDL
MODEL 10
REMARK VINA RESULT:    -7.257      2.572      6.906
REMARK INTER + INTRA:         -11.152
REMARK INTER:                 -10.149
REMARK INTRA:                  -1.003
REMARK UNBOUND:                -1.774
REMARK  Name = ligands_pdb/TRN_CHEMBL120838.pdb
REMARK  6 active torsions:
REMARK  status: ('A' for Active; 'I' for Inactive)
REMARK    1  A    between atoms: C1_1  and  C2_2
REMARK    2  A    between atoms: C3_5  and  C4_6
REMARK    3  A    between atoms: C8_12  and  O2_13
REMARK    4  A    between atoms: O2_13  and  C9_14
REMARK    5  A    between atoms: C9_14  and  C10_15
REMARK    6  A    between atoms: C15_20  and  C16_21
REMARK                            x       y       z     vdW  Elec       q    Type
REMARK                         _______ _______ _______ _____ _____    ______ ____
ROOT
ATOM      1  C4  T01     1     140.569  99.559 128.513  0.00  0.00    +0.243 A 
ATOM      2  N2  T01     1     140.171  99.240 127.287  0.00  0.00    -0.122 NA
ATOM      3  N3  T01     1     140.934  98.174 126.871  0.00  0.00    -0.127 NA
ATOM      4  C5  T01     1     141.744  97.920 127.878  0.00  0.00    +0.182 A 
ATOM      5  C6  T01     1     142.728  96.894 127.919  0.00  0.00    +0.010 A 
ATOM      6  C7  T01     1     143.450  96.833 129.089  0.00  0.00    +0.026 A 
ATOM      7  C8  T01     1     143.210  97.723 130.135  0.00  0.00    +0.237 A 
ATOM      8  N5  T01     1     142.288  98.704 130.131  0.00  0.00    -0.125 NA
ATOM      9  N6  T01     1     141.586  98.742 128.955  0.00  0.00    -0.185 N 
ATOM     10  C17 T01     1     144.483  95.722 129.078  0.00  0.00    +0.025 C 
ATOM     11  C18 T01     1     145.414  95.976 127.853  0.00  0.00    +0.009 C 
ATOM     12  C19 T01     1     144.575  96.072 126.536  0.00  0.00    +0.009 C 
ATOM     13  C20 T01     1     143.061  95.888 126.845  0.00  0.00    +0.023 C 
ATOM     14  C21 T01     1     142.883  94.486 127.496  0.00  0.00    +0.009 C 
ATOM     15  C22 T01     1     143.719  94.389 128.814  0.00  0.00    +0.009 C 
ENDROOT
BRANCH   1  20
ATOM     16  C1  T01     1     137.305 102.406 130.719  0.00  0.00    +0.091 C 
ATOM     17  C2  T01     1     138.592 101.862 130.164  0.00  0.00    +0.169 A 
ATOM     18  N1  T01     1     139.736 102.524 130.283  0.00  0.00    -0.061 NA
ATOM     19  O1  T01     1     140.690 101.708 129.647  0.00  0.00    -0.329 OA
ATOM     20  C3  T01     1     139.955 100.650 129.228  0.00  0.00    +0.298 A 
ATOM     21  N7  T01     1     138.710 100.739 129.533  0.00  0.00    -0.189 NA
ENDBRANCH   1  20
BRANCH   7  22
ATOM     22  O2  T01     1     143.972  97.596 131.271  0.00  0.00    -0.470 OA
BRANCH  22  23
ATOM     23  C9  T01     1     144.051  98.625 132.282  0.00  0.00    +0.267 C 
BRANCH  23  24
ATOM     24  C10 T01     1     143.246  98.259 133.534  0.00  0.00    +0.007 A 
ATOM     25  C11 T01     1     141.887  98.622 133.663  0.00  0.00    +0.008 A 
ATOM     26  C12 T01     1     141.158  98.282 134.814  0.00  0.00    +0.000 A 
ATOM     27  C13 T01     1     141.777  97.575 135.854  0.00  0.00    +0.001 A 
ATOM     28  C14 T01     1     143.126  97.208 135.741  0.00  0.00    +0.019 A 
ATOM     29  C15 T01     1     143.862  97.545 134.590  0.00  0.00    +0.058 A 
BRANCH  29  30
ATOM     30  C16 T01     1     145.242  97.148 134.519  0.00  0.00    +0.100 C 
ATOM     31  N4  T01     1     146.351  96.823 134.470  0.00  0.00    -0.191 NA
ENDBRANCH  29  30
ENDBRANCH  23  24
ENDBRANCH  22  23
ENDBRANCH   7  22
TORSDOF 5
ENDMDL
