MODEL 1
REMARK VINA RESULT:    -9.716      0.000      0.000
REMARK INTER + INTRA:         -12.711
REMARK INTER:                 -11.988
REMARK INTRA:                  -0.723
REMARK UNBOUND:                -0.723
REMARK  Name = ligands_pdb/TRN_CHEMBL361015.pdb
REMARK  5 active torsions:
REMARK  status: ('A' for Active; 'I' for Inactive)
REMARK    1  A    between atoms: C1_1  and  C2_2
REMARK    2  A    between atoms: C4_6  and  C5_7
REMARK    3  A    between atoms: C5_7  and  O1_8
REMARK    4  A    between atoms: O1_8  and  C6_9
REMARK    5  A    between atoms: C7_12  and  C8_13
REMARK                            x       y       z     vdW  Elec       q    Type
REMARK                         _______ _______ _______ _____ _____    ______ ____
ROOT
ATOM      1  C6  T16     1     141.658  97.985 133.845  0.00  0.00    +0.237 A 
ATOM      2  N2  T16     1     141.945  97.805 135.159  0.00  0.00    -0.125 NA
ATOM      3  N3  T16     1     143.068  97.111 135.477  0.00  0.00    -0.189 N 
ATOM      4  C7  T16     1     143.620  96.715 136.676  0.00  0.00    +0.185 A 
ATOM      5  N4  T16     1     144.700  95.972 136.400  0.00  0.00    -0.127 NA
ATOM      6  N5  T16     1     144.864  95.896 135.146  0.00  0.00    -0.127 NA
ATOM      7  C14 T16     1     143.911  96.556 134.568  0.00  0.00    +0.182 A 
ATOM      8  C15 T16     1     143.639  96.714 133.203  0.00  0.00    +0.010 A 
ATOM      9  C16 T16     1     142.497  97.448 132.841  0.00  0.00    +0.026 A 
ATOM     10  C17 T16     1     142.291  97.555 131.330  0.00  0.00    +0.025 C 
ATOM     11  C18 T16     1     142.205  96.100 130.781  0.00  0.00    +0.009 C 
ATOM     12  C19 T16     1     143.471  95.281 131.194  0.00  0.00    +0.009 C 
ATOM     13  C20 T16     1     144.444  96.164 132.030  0.00  0.00    +0.023 C 
ATOM     14  C21 T16     1     144.845  97.385 131.152  0.00  0.00    +0.009 C 
ATOM     15  C22 T16     1     143.577  98.205 130.742  0.00  0.00    +0.009 C 
ENDROOT
BRANCH   4  16
ATOM     16  C8  T16     1     143.125  97.003 138.028  0.00  0.00    +0.021 A 
ATOM     17  C9  T16     1     143.603  98.133 138.725  0.00  0.00    +0.011 A 
ATOM     18  C10 T16     1     143.136  98.426 140.018  0.00  0.00    +0.001 A 
ATOM     19  C11 T16     1     142.183  97.596 140.627  0.00  0.00    +0.000 A 
ATOM     20  C12 T16     1     141.694  96.475 139.939  0.00  0.00    +0.001 A 
ATOM     21  C13 T16     1     142.160  96.181 138.646  0.00  0.00    +0.011 A 
ENDBRANCH   4  16
BRANCH   1  22
ATOM     22  O1  T16     1     140.537  98.688 133.462  0.00  0.00    -0.467 OA
BRANCH  22  23
ATOM     23  C5  T16     1     140.482 100.129 133.526  0.00  0.00    +0.304 C 
BRANCH  23  29
ATOM     24  C1  T16     1     139.944 100.999 128.650  0.00  0.00    +0.067 C 
ATOM     25  C2  T16     1     139.838 101.053 130.148  0.00  0.00    +0.056 A 
ATOM     26  C3  T16     1     139.014 102.037 130.788  0.00  0.00    +0.107 A 
ATOM     27  N1  T16     1     139.171 101.778 132.111  0.00  0.00    -0.345 N 
ATOM     28  H1  T16     1     138.758 102.218 132.920  0.00  0.00    +0.167 HD
ATOM     29  C4  T16     1     140.032 100.697 132.194  0.00  0.00    +0.145 A 
ATOM     30  N6  T16     1     140.451 100.250 131.023  0.00  0.00    -0.234 NA
ENDBRANCH  23  29
ENDBRANCH  22  23
ENDBRANCH   1  22
TORSDOF 4
ENDMDL
MODEL 2
REMARK VINA RESULT:    -8.885      1.734      2.041
REMARK INTER + INTRA:         -11.685
REMARK INTER:                 -10.931
REMARK INTRA:                  -0.754
REMARK UNBOUND:                -0.723
REMARK  Name = ligands_pdb/TRN_CHEMBL361015.pdb
REMARK  5 active torsions:
REMARK  status: ('A' for Active; 'I' for Inactive)
REMARK    1  A    between atoms: C1_1  and  C2_2
REMARK    2  A    between atoms: C4_6  and  C5_7
REMARK    3  A    between atoms: C5_7  and  O1_8
REMARK    4  A    between atoms: O1_8  and  C6_9
REMARK    5  A    between atoms: C7_12  and  C8_13
REMARK                            x       y       z     vdW  Elec       q    Type
REMARK                         _______ _______ _______ _____ _____    ______ ____
ROOT
ATOM      1  C6  T16     1     141.989  96.727 133.018  0.00  0.00    +0.237 A 
ATOM      2  N2  T16     1     142.230  96.734 134.354  0.00  0.00    -0.125 NA
ATOM      3  N3  T16     1     143.508  96.547 134.771  0.00  0.00    -0.189 N 
ATOM      4  C7  T16     1     144.085  96.453 136.019  0.00  0.00    +0.185 A 
ATOM      5  N4  T16     1     145.384  96.177 135.846  0.00  0.00    -0.127 NA
ATOM      6  N5  T16     1     145.653  96.111 134.609  0.00  0.00    -0.127 NA
ATOM      7  C14 T16     1     144.561  96.321 133.943  0.00  0.00    +0.182 A 
ATOM      8  C15 T16     1     144.346  96.297 132.559  0.00  0.00    +0.010 A 
ATOM      9  C16 T16     1     143.037  96.511 132.094  0.00  0.00    +0.026 A 
ATOM     10  C17 T16     1     142.912  96.459 130.571  0.00  0.00    +0.025 C 
ATOM     11  C18 T16     1     143.432  95.061 130.123  0.00  0.00    +0.009 C 
ATOM     12  C19 T16     1     144.883  94.818 130.651  0.00  0.00    +0.009 C 
ATOM     13  C20 T16     1     145.380  96.048 131.467  0.00  0.00    +0.023 C 
ATOM     14  C21 T16     1     145.340  97.286 130.524  0.00  0.00    +0.009 C 
ATOM     15  C22 T16     1     143.887  97.528 129.999  0.00  0.00    +0.009 C 
ENDROOT
BRANCH   4  16
ATOM     16  C8  T16     1     143.424  96.590 137.323  0.00  0.00    +0.021 A 
ATOM     17  C9  T16     1     143.721  97.694 138.150  0.00  0.00    +0.011 A 
ATOM     18  C10 T16     1     143.094  97.842 139.398  0.00  0.00    +0.001 A 
ATOM     19  C11 T16     1     142.159  96.891 139.833  0.00  0.00    +0.000 A 
ATOM     20  C12 T16     1     141.848  95.794 139.015  0.00  0.00    +0.001 A 
ATOM     21  C13 T16     1     142.475  95.645 137.767  0.00  0.00    +0.011 A 
ENDBRANCH   4  16
BRANCH   1  22
ATOM     22  O1  T16     1     140.713  96.920 132.535  0.00  0.00    -0.467 OA
BRANCH  22  23
ATOM     23  C5  T16     1     140.242  98.222 132.126  0.00  0.00    +0.304 C 
BRANCH  23  29
ATOM     24  C1  T16     1     138.468  96.855 127.675  0.00  0.00    +0.067 C 
ATOM     25  C2  T16     1     139.125  97.601 128.802  0.00  0.00    +0.056 A 
ATOM     26  C3  T16     1     139.758  98.867 128.570  0.00  0.00    +0.107 A 
ATOM     27  N1  T16     1     140.227  99.221 129.793  0.00  0.00    -0.345 N 
ATOM     28  H1  T16     1     140.722 100.049 130.092  0.00  0.00    +0.167 HD
ATOM     29  C4  T16     1     139.861  98.204 130.658  0.00  0.00    +0.145 A 
ATOM     30  N6  T16     1     139.203  97.215 130.079  0.00  0.00    -0.234 NA
ENDBRANCH  23  29
ENDBRANCH  22  23
ENDBRANCH   1  22
TORSDOF 4
ENDMDL
MODEL 3
REMARK VINA RESULT:    -8.087      3.454      8.322
REMARK INTER + INTRA:         -10.701
REMARK INTER:                  -9.711
REMARK INTRA:                  -0.991
REMARK UNBOUND:                -0.723
REMARK  Name = ligands_pdb/TRN_CHEMBL361015.pdb
REMARK  5 active torsions:
REMARK  status: ('A' for Active; 'I' for Inactive)
REMARK    1  A    between atoms: C1_1  and  C2_2
REMARK    2  A    between atoms: C4_6  and  C5_7
REMARK    3  A    between atoms: C5_7  and  O1_8
REMARK    4  A    between atoms: O1_8  and  C6_9
REMARK    5  A    between atoms: C7_12  and  C8_13
REMARK                            x       y       z     vdW  Elec       q    Type
REMARK                         _______ _______ _______ _____ _____    ______ ____
ROOT
ATOM      1  C6  T16     1     140.642  96.515 131.646  0.00  0.00    +0.237 A 
ATOM      2  N2  T16     1     140.194  96.606 130.368  0.00  0.00    -0.125 NA
ATOM      3  N3  T16     1     140.166  97.833 129.789  0.00  0.00    -0.189 N 
ATOM      4  C7  T16     1     139.740  98.283 128.557  0.00  0.00    +0.185 A 
ATOM      5  N4  T16     1     139.864  99.616 128.546  0.00  0.00    -0.127 NA
ATOM      6  N5  T16     1     140.341 100.016 129.650  0.00  0.00    -0.127 NA
ATOM      7  C14 T16     1     140.528  98.985 130.412  0.00  0.00    +0.182 A 
ATOM      8  C15 T16     1     140.986  98.929 131.735  0.00  0.00    +0.010 A 
ATOM      9  C16 T16     1     141.049  97.669 132.355  0.00  0.00    +0.026 A 
ATOM     10  C17 T16     1     141.556  97.720 133.796  0.00  0.00    +0.025 C 
ATOM     11  C18 T16     1     140.600  98.669 134.577  0.00  0.00    +0.009 C 
ATOM     12  C19 T16     1     140.522 100.067 133.880  0.00  0.00    +0.009 C 
ATOM     13  C20 T16     1     141.425 100.096 132.612  0.00  0.00    +0.023 C 
ATOM     14  C21 T16     1     142.882  99.791 133.064  0.00  0.00    +0.009 C 
ATOM     15  C22 T16     1     142.959  98.392 133.759  0.00  0.00    +0.009 C 
ENDROOT
BRANCH   4  16
ATOM     16  C8  T16     1     139.208  97.481 127.448  0.00  0.00    +0.021 A 
ATOM     17  C9  T16     1     139.927  97.390 126.238  0.00  0.00    +0.011 A 
ATOM     18  C10 T16     1     139.434  96.624 125.168  0.00  0.00    +0.001 A 
ATOM     19  C11 T16     1     138.219  95.935 125.297  0.00  0.00    +0.000 A 
ATOM     20  C12 T16     1     137.499  96.011 126.500  0.00  0.00    +0.001 A 
ATOM     21  C13 T16     1     137.992  96.777 127.569  0.00  0.00    +0.011 A 
ENDBRANCH   4  16
BRANCH   1  22
ATOM     22  O1  T16     1     140.701  95.294 132.283  0.00  0.00    -0.467 OA
BRANCH  22  23
ATOM     23  C5  T16     1     141.534  94.220 131.797  0.00  0.00    +0.304 C 
BRANCH  23  29
ATOM     24  C1  T16     1     145.970  96.355 131.030  0.00  0.00    +0.067 C 
ATOM     25  C2  T16     1     144.633  95.693 130.846  0.00  0.00    +0.056 A 
ATOM     26  C3  T16     1     144.130  95.415 129.533  0.00  0.00    +0.107 A 
ATOM     27  N1  T16     1     142.928  94.830 129.766  0.00  0.00    -0.345 N 
ATOM     28  H1  T16     1     142.242  94.458 129.124  0.00  0.00    +0.167 HD
ATOM     29  C4  T16     1     142.781  94.780 131.142  0.00  0.00    +0.145 A 
ATOM     30  N6  T16     1     143.795  95.301 131.811  0.00  0.00    -0.234 NA
ENDBRANCH  23  29
ENDBRANCH  22  23
ENDBRANCH   1  22
TORSDOF 4
ENDMDL
MODEL 4
REMARK VINA RESULT:    -8.059      1.590      5.736
REMARK INTER + INTRA:         -10.666
REMARK INTER:                  -9.983
REMARK INTRA:                  -0.683
REMARK UNBOUND:                -0.723
REMARK  Name = ligands_pdb/TRN_CHEMBL361015.pdb
REMARK  5 active torsions:
REMARK  status: ('A' for Active; 'I' for Inactive)
REMARK    1  A    between atoms: C1_1  and  C2_2
REMARK    2  A    between atoms: C4_6  and  C5_7
REMARK    3  A    between atoms: C5_7  and  O1_8
REMARK    4  A    between atoms: O1_8  and  C6_9
REMARK    5  A    between atoms: C7_12  and  C8_13
REMARK                            x       y       z     vdW  Elec       q    Type
REMARK                         _______ _______ _______ _____ _____    ______ ____
ROOT
ATOM      1  C6  T16     1     141.745  97.807 135.349  0.00  0.00    +0.237 A 
ATOM      2  N2  T16     1     142.506  97.817 134.225  0.00  0.00    -0.125 NA
ATOM      3  N3  T16     1     143.773  97.337 134.310  0.00  0.00    -0.189 N 
ATOM      4  C7  T16     1     144.805  97.242 133.401  0.00  0.00    +0.185 A 
ATOM      5  N4  T16     1     145.874  96.762 134.049  0.00  0.00    -0.127 NA
ATOM      6  N5  T16     1     145.582  96.540 135.262  0.00  0.00    -0.127 NA
ATOM      7  C14 T16     1     144.345  96.875 135.452  0.00  0.00    +0.182 A 
ATOM      8  C15 T16     1     143.591  96.860 136.633  0.00  0.00    +0.010 A 
ATOM      9  C16 T16     1     142.267  97.329 136.574  0.00  0.00    +0.026 A 
ATOM     10  C17 T16     1     141.537  97.274 137.915  0.00  0.00    +0.025 C 
ATOM     11  C18 T16     1     142.374  98.122 138.919  0.00  0.00    +0.009 C 
ATOM     12  C19 T16     1     143.850  97.607 138.976  0.00  0.00    +0.009 C 
ATOM     13  C20 T16     1     144.044  96.399 138.014  0.00  0.00    +0.023 C 
ATOM     14  C21 T16     1     143.057  95.280 138.457  0.00  0.00    +0.009 C 
ATOM     15  C22 T16     1     141.581  95.795 138.397  0.00  0.00    +0.009 C 
ENDROOT
BRANCH   4  16
ATOM     16  C8  T16     1     144.785  97.621 131.983  0.00  0.00    +0.021 A 
ATOM     17  C9  T16     1     144.346  98.908 131.605  0.00  0.00    +0.011 A 
ATOM     18  C10 T16     1     144.324  99.288 130.253  0.00  0.00    +0.001 A 
ATOM     19  C11 T16     1     144.746  98.389 129.262  0.00  0.00    +0.000 A 
ATOM     20  C12 T16     1     145.194  97.110 129.627  0.00  0.00    +0.001 A 
ATOM     21  C13 T16     1     145.216  96.729 130.979  0.00  0.00    +0.011 A 
ENDBRANCH   4  16
BRANCH   1  22
ATOM     22  O1  T16     1     140.449  98.274 135.323  0.00  0.00    -0.467 OA
BRANCH  22  23
ATOM     23  C5  T16     1     140.111  99.554 134.748  0.00  0.00    +0.304 C 
BRANCH  23  29
ATOM     24  C1  T16     1     140.983 100.896 130.029  0.00  0.00    +0.067 C 
ATOM     25  C2  T16     1     140.674 100.117 131.277  0.00  0.00    +0.056 A 
ATOM     26  C3  T16     1     140.395  98.712 131.212  0.00  0.00    +0.107 A 
ATOM     27  N1  T16     1     140.167  98.369 132.505  0.00  0.00    -0.345 N 
ATOM     28  H1  T16     1     139.952  97.473 132.919  0.00  0.00    +0.167 HD
ATOM     29  C4  T16     1     140.323  99.527 133.247  0.00  0.00    +0.145 A 
ATOM     30  N6  T16     1     140.621 100.593 132.525  0.00  0.00    -0.234 NA
ENDBRANCH  23  29
ENDBRANCH  22  23
ENDBRANCH   1  22
TORSDOF 4
ENDMDL
MODEL 5
REMARK VINA RESULT:    -7.980      2.389      5.811
REMARK INTER + INTRA:         -10.568
REMARK INTER:                  -9.844
REMARK INTRA:                  -0.724
REMARK UNBOUND:                -0.723
REMARK  Name = ligands_pdb/TRN_CHEMBL361015.pdb
REMARK  5 active torsions:
REMARK  status: ('A' for Active; 'I' for Inactive)
REMARK    1  A    between atoms: C1_1  and  C2_2
REMARK    2  A    between atoms: C4_6  and  C5_7
REMARK    3  A    between atoms: C5_7  and  O1_8
REMARK    4  A    between atoms: O1_8  and  C6_9
REMARK    5  A    between atoms: C7_12  and  C8_13
REMARK                            x       y       z     vdW  Elec       q    Type
REMARK                         _______ _______ _______ _____ _____    ______ ____
ROOT
ATOM      1  C6  T16     1     142.801  97.442 130.810  0.00  0.00    +0.237 A 
ATOM      2  N2  T16     1     142.782  97.304 132.160  0.00  0.00    -0.125 NA
ATOM      3  N3  T16     1     141.870  98.024 132.861  0.00  0.00    -0.189 N 
ATOM      4  C7  T16     1     141.611  98.156 134.209  0.00  0.00    +0.185 A 
ATOM      5  N4  T16     1     140.646  99.074 134.349  0.00  0.00    -0.127 NA
ATOM      6  N5  T16     1     140.283  99.499 133.211  0.00  0.00    -0.127 NA
ATOM      7  C14 T16     1     140.992  98.900 132.307  0.00  0.00    +0.182 A 
ATOM      8  C15 T16     1     140.991  99.075 130.917  0.00  0.00    +0.010 A 
ATOM      9  C16 T16     1     141.908  98.325 130.160  0.00  0.00    +0.026 A 
ATOM     10  C17 T16     1     141.827  98.595 128.657  0.00  0.00    +0.025 C 
ATOM     11  C18 T16     1     142.070 100.121 128.459  0.00  0.00    +0.009 C 
ATOM     12  C19 T16     1     141.057 100.954 129.310  0.00  0.00    +0.009 C 
ATOM     13  C20 T16     1     140.105 100.011 130.103  0.00  0.00    +0.023 C 
ATOM     14  C21 T16     1     139.351  99.125 129.069  0.00  0.00    +0.009 C 
ATOM     15  C22 T16     1     140.365  98.290 128.220  0.00  0.00    +0.009 C 
ENDROOT
BRANCH   4  16
ATOM     16  C8  T16     1     142.274  97.462 135.319  0.00  0.00    +0.021 A 
ATOM     17  C9  T16     1     143.458  96.730 135.084  0.00  0.00    +0.011 A 
ATOM     18  C10 T16     1     144.107  96.063 136.136  0.00  0.00    +0.001 A 
ATOM     19  C11 T16     1     143.585  96.123 137.437  0.00  0.00    +0.000 A 
ATOM     20  C12 T16     1     142.413  96.856 137.684  0.00  0.00    +0.001 A 
ATOM     21  C13 T16     1     141.764  97.523 136.632  0.00  0.00    +0.011 A 
ENDBRANCH   4  16
BRANCH   1  22
ATOM     22  O1  T16     1     143.698  96.730 130.044  0.00  0.00    -0.467 OA
BRANCH  22  23
ATOM     23  C5  T16     1     145.110  97.034 130.044  0.00  0.00    +0.304 C 
BRANCH  23  29
ATOM     24  C1  T16     1     147.659  93.348 132.221  0.00  0.00    +0.067 C 
ATOM     25  C2  T16     1     146.886  94.608 131.953  0.00  0.00    +0.056 A 
ATOM     26  C3  T16     1     146.562  95.509 133.020  0.00  0.00    +0.107 A 
ATOM     27  N1  T16     1     145.876  96.505 132.405  0.00  0.00    -0.345 N 
ATOM     28  H1  T16     1     145.475  97.354 132.777  0.00  0.00    +0.167 HD
ATOM     29  C4  T16     1     145.832  96.173 131.061  0.00  0.00    +0.145 A 
ATOM     30  N6  T16     1     146.428  95.030 130.769  0.00  0.00    -0.234 NA
ENDBRANCH  23  29
ENDBRANCH  22  23
ENDBRANCH   1  22
TORSDOF 4
ENDMDL
MODEL 6
REMARK VINA RESULT:    -7.943      2.570      6.809
REMARK INTER + INTRA:         -10.523
REMARK INTER:                  -9.694
REMARK INTRA:                  -0.829
REMARK UNBOUND:                -0.723
REMARK  Name = ligands_pdb/TRN_CHEMBL361015.pdb
REMARK  5 active torsions:
REMARK  status: ('A' for Active; 'I' for Inactive)
REMARK    1  A    between atoms: C1_1  and  C2_2
REMARK    2  A    between atoms: C4_6  and  C5_7
REMARK    3  A    between atoms: C5_7  and  O1_8
REMARK    4  A    between atoms: O1_8  and  C6_9
REMARK    5  A    between atoms: C7_12  and  C8_13
REMARK                            x       y       z     vdW  Elec       q    Type
REMARK                         _______ _______ _______ _____ _____    ______ ____
ROOT
ATOM      1  C6  T16     1     142.563  98.817 131.905  0.00  0.00    +0.237 A 
ATOM      2  N2  T16     1     143.690  98.081 131.728  0.00  0.00    -0.125 NA
ATOM      3  N3  T16     1     144.037  97.743 130.460  0.00  0.00    -0.189 N 
ATOM      4  C7  T16     1     145.063  96.987 129.935  0.00  0.00    +0.185 A 
ATOM      5  N4  T16     1     144.874  96.909 128.612  0.00  0.00    -0.127 NA
ATOM      6  N5  T16     1     143.839  97.561 128.282  0.00  0.00    -0.127 NA
ATOM      7  C14 T16     1     143.315  98.065 129.354  0.00  0.00    +0.182 A 
ATOM      8  C15 T16     1     142.141  98.815 129.502  0.00  0.00    +0.010 A 
ATOM      9  C16 T16     1     141.767  99.201 130.801  0.00  0.00    +0.026 A 
ATOM     10  C17 T16     1     140.471 100.009 130.850  0.00  0.00    +0.025 C 
ATOM     11  C18 T16     1     139.364  99.128 130.200  0.00  0.00    +0.009 C 
ATOM     12  C19 T16     1     139.786  98.689 128.759  0.00  0.00    +0.009 C 
ATOM     13  C20 T16     1     141.187  99.266 128.402  0.00  0.00    +0.023 C 
ATOM     14  C21 T16     1     141.097 100.817 128.497  0.00  0.00    +0.009 C 
ATOM     15  C22 T16     1     140.677 101.254 129.939  0.00  0.00    +0.009 C 
ENDROOT
BRANCH   4  16
ATOM     16  C8  T16     1     146.160  96.340 130.666  0.00  0.00    +0.021 A 
ATOM     17  C9  T16     1     145.883  95.574 131.817  0.00  0.00    +0.011 A 
ATOM     18  C10 T16     1     146.920  94.945 132.526  0.00  0.00    +0.001 A 
ATOM     19  C11 T16     1     148.247  95.069 132.088  0.00  0.00    +0.000 A 
ATOM     20  C12 T16     1     148.534  95.821 130.938  0.00  0.00    +0.001 A 
ATOM     21  C13 T16     1     147.497  96.450 130.230  0.00  0.00    +0.011 A 
ENDBRANCH   4  16
BRANCH   1  22
ATOM     22  O1  T16     1     142.165  99.197 133.169  0.00  0.00    -0.467 OA
BRANCH  22  23
ATOM     23  C5  T16     1     141.343  98.347 133.997  0.00  0.00    +0.304 C 
BRANCH  23  29
ATOM     24  C1  T16     1     142.976  96.108 138.138  0.00  0.00    +0.067 C 
ATOM     25  C2  T16     1     142.868  96.693 136.758  0.00  0.00    +0.056 A 
ATOM     26  C3  T16     1     143.986  96.663 135.861  0.00  0.00    +0.107 A 
ATOM     27  N1  T16     1     143.518  97.271 134.741  0.00  0.00    -0.345 N 
ATOM     28  H1  T16     1     143.965  97.449 133.854  0.00  0.00    +0.167 HD
ATOM     29  C4  T16     1     142.201  97.610 135.006  0.00  0.00    +0.145 A 
ATOM     30  N6  T16     1     141.793  97.277 136.218  0.00  0.00    -0.234 NA
ENDBRANCH  23  29
ENDBRANCH  22  23
ENDBRANCH   1  22
TORSDOF 4
ENDMDL
MODEL 7
REMARK VINA RESULT:    -7.913      1.961      2.833
REMARK INTER + INTRA:         -10.486
REMARK INTER:                  -9.658
REMARK INTRA:                  -0.828
REMARK UNBOUND:                -0.723
REMARK  Name = ligands_pdb/TRN_CHEMBL361015.pdb
REMARK  5 active torsions:
REMARK  status: ('A' for Active; 'I' for Inactive)
REMARK    1  A    between atoms: C1_1  and  C2_2
REMARK    2  A    between atoms: C4_6  and  C5_7
REMARK    3  A    between atoms: C5_7  and  O1_8
REMARK    4  A    between atoms: O1_8  and  C6_9
REMARK    5  A    between atoms: C7_12  and  C8_13
REMARK                            x       y       z     vdW  Elec       q    Type
REMARK                         _______ _______ _______ _____ _____    ______ ____
ROOT
ATOM      1  C6  T16     1     142.708  96.153 131.361  0.00  0.00    +0.237 A 
ATOM      2  N2  T16     1     142.784  96.300 132.708  0.00  0.00    -0.125 NA
ATOM      3  N3  T16     1     144.013  96.444 133.265  0.00  0.00    -0.189 N 
ATOM      4  C7  T16     1     144.447  96.567 134.567  0.00  0.00    +0.185 A 
ATOM      5  N4  T16     1     145.786  96.592 134.548  0.00  0.00    -0.127 NA
ATOM      6  N5  T16     1     146.205  96.514 133.354  0.00  0.00    -0.127 NA
ATOM      7  C14 T16     1     145.179  96.420 132.568  0.00  0.00    +0.182 A 
ATOM      8  C15 T16     1     145.138  96.259 131.177  0.00  0.00    +0.010 A 
ATOM      9  C16 T16     1     143.878  96.131 130.567  0.00  0.00    +0.026 A 
ATOM     10  C17 T16     1     143.946  95.956 129.050  0.00  0.00    +0.025 C 
ATOM     11  C18 T16     1     144.816  94.693 128.781  0.00  0.00    +0.009 C 
ATOM     12  C19 T16     1     146.214  94.831 129.469  0.00  0.00    +0.009 C 
ATOM     13  C20 T16     1     146.321  96.192 130.218  0.00  0.00    +0.023 C 
ATOM     14  C21 T16     1     146.113  97.324 129.171  0.00  0.00    +0.009 C 
ATOM     15  C22 T16     1     144.713  97.186 128.485  0.00  0.00    +0.009 C 
ENDROOT
BRANCH   4  16
ATOM     16  C8  T16     1     143.625  96.626 135.782  0.00  0.00    +0.021 A 
ATOM     17  C9  T16     1     144.018  95.912 136.933  0.00  0.00    +0.011 A 
ATOM     18  C10 T16     1     143.245  95.961 138.105  0.00  0.00    +0.001 A 
ATOM     19  C11 T16     1     142.072  96.729 138.142  0.00  0.00    +0.000 A 
ATOM     20  C12 T16     1     141.676  97.452 137.006  0.00  0.00    +0.001 A 
ATOM     21  C13 T16     1     142.449  97.403 135.834  0.00  0.00    +0.011 A 
ENDBRANCH   4  16
BRANCH   1  22
ATOM     22  O1  T16     1     141.486  96.011 130.739  0.00  0.00    -0.467 OA
BRANCH  22  23
ATOM     23  C5  T16     1     140.258  96.439 131.365  0.00  0.00    +0.304 C 
BRANCH  23  29
ATOM     24  C1  T16     1     139.006 100.859 129.435  0.00  0.00    +0.067 C 
ATOM     25  C2  T16     1     139.536  99.766 130.320  0.00  0.00    +0.056 A 
ATOM     26  C3  T16     1     140.214 100.080 131.544  0.00  0.00    +0.107 A 
ATOM     27  N1  T16     1     140.539  98.865 132.053  0.00  0.00    -0.345 N 
ATOM     28  H1  T16     1     141.010  98.617 132.912  0.00  0.00    +0.167 HD
ATOM     29  C4  T16     1     140.055  97.927 131.157  0.00  0.00    +0.145 A 
ATOM     30  N6  T16     1     139.454  98.449 130.103  0.00  0.00    -0.234 NA
ENDBRANCH  23  29
ENDBRANCH  22  23
ENDBRANCH   1  22
TORSDOF 4
ENDMDL
MODEL 8
REMARK VINA RESULT:    -7.583      3.359      6.036
REMARK INTER + INTRA:         -10.079
REMARK INTER:                  -9.031
REMARK INTRA:                  -1.049
REMARK UNBOUND:                -0.723
REMARK  Name = ligands_pdb/TRN_CHEMBL361015.pdb
REMARK  5 active torsions:
REMARK  status: ('A' for Active; 'I' for Inactive)
REMARK    1  A    between atoms: C1_1  and  C2_2
REMARK    2  A    between atoms: C4_6  and  C5_7
REMARK    3  A    between atoms: C5_7  and  O1_8
REMARK    4  A    between atoms: O1_8  and  C6_9
REMARK    5  A    between atoms: C7_12  and  C8_13
REMARK                            x       y       z     vdW  Elec       q    Type
REMARK                         _______ _______ _______ _____ _____    ______ ____
ROOT
ATOM      1  C6  T16     1     143.464  96.227 130.983  0.00  0.00    +0.237 A 
ATOM      2  N2  T16     1     144.631  95.551 131.137  0.00  0.00    -0.125 NA
ATOM      3  N3  T16     1     145.390  95.831 132.227  0.00  0.00    -0.189 N 
ATOM      4  C7  T16     1     146.618  95.379 132.660  0.00  0.00    +0.185 A 
ATOM      5  N4  T16     1     146.935  96.061 133.768  0.00  0.00    -0.127 NA
ATOM      6  N5  T16     1     146.006  96.872 134.058  0.00  0.00    -0.127 NA
ATOM      7  C14 T16     1     145.076  96.766 133.162  0.00  0.00    +0.182 A 
ATOM      8  C15 T16     1     143.884  97.489 133.029  0.00  0.00    +0.010 A 
ATOM      9  C16 T16     1     143.064  97.206 131.922  0.00  0.00    +0.026 A 
ATOM     10  C17 T16     1     141.793  98.052 131.869  0.00  0.00    +0.025 C 
ATOM     11  C18 T16     1     142.244  99.543 131.850  0.00  0.00    +0.009 C 
ATOM     12  C19 T16     1     143.165  99.854 133.075  0.00  0.00    +0.009 C 
ATOM     13  C20 T16     1     143.356  98.582 133.951  0.00  0.00    +0.023 C 
ATOM     14  C21 T16     1     141.948  98.122 134.429  0.00  0.00    +0.009 C 
ATOM     15  C22 T16     1     141.029  97.809 133.203  0.00  0.00    +0.009 C 
ENDROOT
BRANCH   4  16
ATOM     16  C8  T16     1     147.469  94.363 132.029  0.00  0.00    +0.021 A 
ATOM     17  C9  T16     1     148.191  94.678 130.858  0.00  0.00    +0.011 A 
ATOM     18  C10 T16     1     149.013  93.719 130.243  0.00  0.00    +0.001 A 
ATOM     19  C11 T16     1     149.128  92.433 130.794  0.00  0.00    +0.000 A 
ATOM     20  C12 T16     1     148.422  92.111 131.964  0.00  0.00    +0.001 A 
ATOM     21  C13 T16     1     147.600  93.071 132.579  0.00  0.00    +0.011 A 
ENDBRANCH   4  16
BRANCH   1  22
ATOM     22  O1  T16     1     142.648  95.980 129.900  0.00  0.00    -0.467 OA
BRANCH  22  23
ATOM     23  C5  T16     1     142.973  96.456 128.577  0.00  0.00    +0.304 C 
BRANCH  23  29
ATOM     24  C1  T16     1     140.006 100.418 128.004  0.00  0.00    +0.067 C 
ATOM     25  C2  T16     1     141.197  99.511 128.133  0.00  0.00    +0.056 A 
ATOM     26  C3  T16     1     142.529 100.033 128.026  0.00  0.00    +0.107 A 
ATOM     27  N1  T16     1     143.317  98.941 128.191  0.00  0.00    -0.345 N 
ATOM     28  H1  T16     1     144.323  98.852 128.206  0.00  0.00    +0.167 HD
ATOM     29  C4  T16     1     142.460  97.871 128.389  0.00  0.00    +0.145 A 
ATOM     30  N6  T16     1     141.179  98.192 128.351  0.00  0.00    -0.234 NA
ENDBRANCH  23  29
ENDBRANCH  22  23
ENDBRANCH   1  22
TORSDOF 4
ENDMDL
